pcf
* control data
restart estimation
13 11167 1 0 1
1 1 single nopoint 1 0 0
5.0 2.0 0.3 0.01 10
5.0 5.0 0.001
0.1
30 0.005 4 3 0.01 3
1 1 1
* parameter groups
 fit	relative	0.01	0.00001	switch	2.0	parabolic
* parameter data
   lat	fixed	factor	4.6450e+01	4.0000e+01	5.0000e+01	none	1.0	0.0	1
  pair	fixed	factor	9.9000e+02	9.0000e+02	1.0000e+03	none	1.0	0.0	1
 alpha	none	factor	7.0000e-02	1.0000e-03	2.0000e-01	 fit	1.0	0.0	1
   qNN	fixed	factor	1.2500e+00	7.0000e-01	1.3000e+00	none	1.0	0.0	1
 fwind	fixed	factor	1.0000e+00	1.0000e+00	2.0000e+00	none	1.0	0.0	1
   C10	fixed	factor	1.7000e-03	1.0000e-03	3.0000e-03	none	1.0	0.0	1
    CD	fixed	factor	2.0000e-03	1.0000e-03	5.0000e-03	none	1.0	0.0	1
  fgeo	fixed	factor	5.0000e-01	0.0000e+00	1.0000e+00	none	1.0	0.0	1
  kmin	fixed	factor	1.0000e-15	1.0000e-30	1.0000e-09	none	1.0	0.0	1
    p1	none	factor	1.1000e+00	8.0000e-01	1.2500e+00	 fit	1.0	0.0	1
    p2	none	factor	9.0000e-01	8.0000e-01	1.2500e+00	 fit	1.0	0.0	1
  beta	fixed	relative	3.0000e-01	0.0000e+00	4.0000e-01	none	1.0	0.0	1
 albsw	fixed	relative	2.0000e-01	0.0000e+00	3.0000e-01	none	1.0	0.0	1
* observation groups
obs
* observation data
Temp_1_1	  5.7000e+00	1.0	obs
Temp_1_2	  5.7000e+00	1.0	obs
Temp_1_3	  5.7000e+00	1.0	obs
Temp_1_4	  5.7000e+00	1.0	obs
Temp_1_5	  5.7000e+00	1.0	obs
Temp_1_6	  5.7000e+00	1.0	obs
Temp_1_7	  5.7000e+00	1.0	obs
Temp_1_8	  5.7000e+00	1.0	obs
Temp_1_9	  5.7000e+00	1.0	obs
Temp_1_10	  5.7000e+00	1.0	obs
Temp_1_11	  5.7000e+00	1.0	obs
Temp_1_12	  5.7000e+00	1.0	obs
Temp_1_13	  5.7000e+00	1.0	obs
Temp_1_14	  5.7000e+00	1.0	obs
Temp_1_15	  5.7000e+00	1.0	obs
Temp_1_16	  5.7000e+00	1.0	obs
Temp_1_17	  5.7000e+00	1.0	obs
Temp_2_1	  5.3000e+00	1.0	obs
Temp_2_2	  5.5000e+00	1.0	obs
Temp_2_3	  5.5000e+00	1.0	obs
Temp_2_4	  5.5000e+00	1.0	obs
Temp_2_5	  5.5000e+00	1.0	obs
Temp_2_6	  5.5000e+00	1.0	obs
Temp_2_7	  5.5000e+00	1.0	obs
Temp_2_8	  5.5000e+00	1.0	obs
Temp_2_9	  5.5000e+00	1.0	obs
Temp_2_10	  5.5000e+00	1.0	obs
Temp_2_11	  5.5000e+00	1.0	obs
Temp_2_12	  5.5000e+00	1.0	obs
Temp_2_13	  5.5000e+00	1.0	obs
Temp_2_14	  5.5000e+00	1.0	obs
Temp_2_15	  5.4000e+00	1.0	obs
Temp_2_16	  5.4000e+00	1.0	obs
Temp_2_17	  5.4000e+00	1.0	obs
Temp_3_1	  5.5000e+00	1.0	obs
Temp_3_2	  5.5000e+00	1.0	obs
Temp_3_3	  5.5000e+00	1.0	obs
Temp_3_4	  5.5000e+00	1.0	obs
Temp_3_5	  5.4000e+00	1.0	obs
Temp_3_6	  5.4000e+00	1.0	obs
Temp_3_7	  5.4000e+00	1.0	obs
Temp_3_8	  5.4000e+00	1.0	obs
Temp_3_9	  5.4000e+00	1.0	obs
Temp_3_10	  5.4000e+00	1.0	obs
Temp_3_11	  5.4000e+00	1.0	obs
Temp_3_12	  5.4000e+00	1.0	obs
Temp_3_13	  5.3000e+00	1.0	obs
Temp_3_14	  5.3000e+00	1.0	obs
Temp_3_15	  5.2500e+00	1.0	obs
Temp_3_16	  5.2000e+00	1.0	obs
Temp_3_17	  5.3000e+00	1.0	obs
Temp_4_1	  5.8000e+00	1.0	obs
Temp_4_2	  5.8000e+00	1.0	obs
Temp_4_3	  5.8000e+00	1.0	obs
Temp_4_4	  5.8000e+00	1.0	obs
Temp_4_5	  5.8000e+00	1.0	obs
Temp_4_6	  5.8000e+00	1.0	obs
Temp_4_7	  5.8000e+00	1.0	obs
Temp_4_8	  5.7000e+00	1.0	obs
Temp_4_9	  5.5000e+00	1.0	obs
Temp_4_10	  5.5000e+00	1.0	obs
Temp_4_11	  5.5000e+00	1.0	obs
Temp_4_12	  5.5000e+00	1.0	obs
Temp_4_13	  5.5000e+00	1.0	obs
Temp_4_14	  5.5000e+00	1.0	obs
Temp_4_15	  5.3500e+00	1.0	obs
Temp_4_16	  5.3500e+00	1.0	obs
Temp_4_17	  5.3000e+00	1.0	obs
Temp_5_1	  8.7000e+00	1.0	obs
Temp_5_2	  8.7000e+00	1.0	obs
Temp_5_3	  7.9000e+00	1.0	obs
Temp_5_4	  6.8000e+00	1.0	obs
Temp_5_5	  6.4000e+00	1.0	obs
Temp_5_6	  6.0000e+00	1.0	obs
Temp_5_7	  6.0000e+00	1.0	obs
Temp_5_8	  5.8000e+00	1.0	obs
Temp_5_9	  5.5000e+00	1.0	obs
Temp_5_10	  5.5000e+00	1.0	obs
Temp_5_11	  5.4000e+00	1.0	obs
Temp_5_12	  5.4000e+00	1.0	obs
Temp_5_13	  5.3000e+00	1.0	obs
Temp_5_14	  5.3000e+00	1.0	obs
Temp_5_15	  5.2500e+00	1.0	obs
Temp_5_16	  5.2500e+00	1.0	obs
Temp_5_17	  5.2000e+00	1.0	obs
Temp_6_1	  6.9000e+00	1.0	obs
Temp_6_2	  6.8000e+00	1.0	obs
Temp_6_3	  6.7000e+00	1.0	obs
Temp_6_4	  6.5000e+00	1.0	obs
Temp_6_5	  6.4000e+00	1.0	obs
Temp_6_6	  6.4000e+00	1.0	obs
Temp_6_7	  6.3000e+00	1.0	obs
Temp_6_8	  6.2000e+00	1.0	obs
Temp_6_9	  5.9000e+00	1.0	obs
Temp_6_10	  5.5000e+00	1.0	obs
Temp_6_11	  5.4000e+00	1.0	obs
Temp_6_12	  5.3000e+00	1.0	obs
Temp_6_13	  5.3000e+00	1.0	obs
Temp_6_14	  5.2000e+00	1.0	obs
Temp_6_15	  5.2000e+00	1.0	obs
Temp_6_16	  5.2000e+00	1.0	obs
Temp_6_17	  5.2000e+00	1.0	obs
Temp_7_1	  7.4000e+00	1.0	obs
Temp_7_2	  7.4000e+00	1.0	obs
Temp_7_3	  7.4000e+00	1.0	obs
Temp_7_4	  7.4000e+00	1.0	obs
Temp_7_5	  7.4000e+00	1.0	obs
Temp_7_6	  7.4000e+00	1.0	obs
Temp_7_7	  7.3000e+00	1.0	obs
Temp_7_8	  7.3000e+00	1.0	obs
Temp_7_9	  6.0000e+00	1.0	obs
Temp_7_10	  5.6000e+00	1.0	obs
Temp_7_11	  5.5000e+00	1.0	obs
Temp_7_12	  5.4000e+00	1.0	obs
Temp_7_13	  5.4000e+00	1.0	obs
Temp_7_14	  5.2000e+00	1.0	obs
Temp_7_15	  5.2000e+00	1.0	obs
Temp_7_16	  5.2000e+00	1.0	obs
Temp_7_17	  5.2000e+00	1.0	obs
Temp_8_1	  1.2800e+01	1.0	obs
Temp_8_2	  1.2600e+01	1.0	obs
Temp_8_3	  1.1200e+01	1.0	obs
Temp_8_4	  1.0300e+01	1.0	obs
Temp_8_5	  8.8000e+00	1.0	obs
Temp_8_6	  8.0000e+00	1.0	obs
Temp_8_7	  7.0000e+00	1.0	obs
Temp_8_8	  6.9000e+00	1.0	obs
Temp_8_9	  6.3000e+00	1.0	obs
Temp_8_10	  6.1000e+00	1.0	obs
Temp_8_11	  5.8000e+00	1.0	obs
Temp_8_12	  5.6000e+00	1.0	obs
Temp_8_13	  5.3000e+00	1.0	obs
Temp_8_14	  5.2500e+00	1.0	obs
Temp_8_15	  5.2500e+00	1.0	obs
Temp_8_16	  5.2500e+00	1.0	obs
Temp_8_17	  5.3000e+00	1.0	obs
Temp_9_1	  1.6600e+01	1.0	obs
Temp_9_2	  1.5500e+01	1.0	obs
Temp_9_3	  1.3800e+01	1.0	obs
Temp_9_4	  1.3000e+01	1.0	obs
Temp_9_5	  1.2600e+01	1.0	obs
Temp_9_6	  1.0900e+01	1.0	obs
Temp_9_7	  8.8000e+00	1.0	obs
Temp_9_8	  7.8000e+00	1.0	obs
Temp_9_9	  6.4000e+00	1.0	obs
Temp_9_10	  5.7000e+00	1.0	obs
Temp_9_11	  5.4000e+00	1.0	obs
Temp_9_12	  5.4000e+00	1.0	obs
Temp_9_13	  5.3000e+00	1.0	obs
Temp_9_14	  5.3000e+00	1.0	obs
Temp_9_15	  5.3000e+00	1.0	obs
Temp_9_16	  5.3000e+00	1.0	obs
Temp_9_17	  5.3000e+00	1.0	obs
Temp_10_1	  1.9600e+01	1.0	obs
Temp_10_2	  1.6600e+01	1.0	obs
Temp_10_3	  1.5800e+01	1.0	obs
Temp_10_4	  1.3600e+01	1.0	obs
Temp_10_5	  1.2500e+01	1.0	obs
Temp_10_6	  9.7000e+00	1.0	obs
Temp_10_7	  8.1000e+00	1.0	obs
Temp_10_8	  7.6000e+00	1.0	obs
Temp_10_9	  6.4000e+00	1.0	obs
Temp_10_10	  5.7000e+00	1.0	obs
Temp_10_11	  5.5000e+00	1.0	obs
Temp_10_12	  5.4000e+00	1.0	obs
Temp_10_13	  5.3000e+00	1.0	obs
Temp_10_14	  5.2000e+00	1.0	obs
Temp_10_15	  5.2000e+00	1.0	obs
Temp_10_16	  5.2000e+00	1.0	obs
Temp_10_17	  5.2000e+00	1.0	obs
Temp_11_1	  1.7800e+01	1.0	obs
Temp_11_2	  1.6300e+01	1.0	obs
Temp_11_3	  1.5600e+01	1.0	obs
Temp_11_4	  1.5400e+01	1.0	obs
Temp_11_5	  1.3800e+01	1.0	obs
Temp_11_6	  1.1800e+01	1.0	obs
Temp_11_7	  7.8000e+00	1.0	obs
Temp_11_8	  6.4000e+00	1.0	obs
Temp_11_9	  5.8000e+00	1.0	obs
Temp_11_10	  5.8000e+00	1.0	obs
Temp_11_11	  5.4000e+00	1.0	obs
Temp_11_12	  5.4000e+00	1.0	obs
Temp_11_13	  5.4000e+00	1.0	obs
Temp_11_14	  5.3000e+00	1.0	obs
Temp_11_15	  5.3000e+00	1.0	obs
Temp_11_16	  5.3000e+00	1.0	obs
Temp_11_17	  5.2500e+00	1.0	obs
Temp_12_1	  1.8200e+01	1.0	obs
Temp_12_2	  1.8200e+01	1.0	obs
Temp_12_3	  1.8100e+01	1.0	obs
Temp_12_4	  1.7900e+01	1.0	obs
Temp_12_5	  1.3100e+01	1.0	obs
Temp_12_6	  1.1300e+01	1.0	obs
Temp_12_7	  1.0800e+01	1.0	obs
Temp_12_8	  8.2000e+00	1.0	obs
Temp_12_9	  6.4000e+00	1.0	obs
Temp_12_10	  5.7000e+00	1.0	obs
Temp_12_11	  5.4000e+00	1.0	obs
Temp_12_12	  5.3000e+00	1.0	obs
Temp_12_13	  5.3000e+00	1.0	obs
Temp_12_14	  5.2500e+00	1.0	obs
Temp_12_15	  5.2500e+00	1.0	obs
Temp_12_16	  5.2500e+00	1.0	obs
Temp_12_17	  5.3000e+00	1.0	obs
Temp_13_1	  2.0800e+01	1.0	obs
Temp_13_2	  2.0700e+01	1.0	obs
Temp_13_3	  2.0600e+01	1.0	obs
Temp_13_4	  1.8400e+01	1.0	obs
Temp_13_5	  1.5500e+01	1.0	obs
Temp_13_6	  1.2400e+01	1.0	obs
Temp_13_7	  1.1100e+01	1.0	obs
Temp_13_8	  8.3000e+00	1.0	obs
Temp_13_9	  6.5000e+00	1.0	obs
Temp_13_10	  5.7000e+00	1.0	obs
Temp_13_11	  5.4000e+00	1.0	obs
Temp_13_12	  5.4000e+00	1.0	obs
Temp_13_13	  5.3000e+00	1.0	obs
Temp_13_14	  5.3000e+00	1.0	obs
Temp_13_15	  5.3000e+00	1.0	obs
Temp_13_16	  5.3000e+00	1.0	obs
Temp_13_17	  5.3000e+00	1.0	obs
Temp_14_1	  2.0700e+01	1.0	obs
Temp_14_2	  2.0700e+01	1.0	obs
Temp_14_3	  1.8100e+01	1.0	obs
Temp_14_4	  1.6100e+01	1.0	obs
Temp_14_5	  1.3000e+01	1.0	obs
Temp_14_6	  1.0600e+01	1.0	obs
Temp_14_7	  9.4000e+00	1.0	obs
Temp_14_8	  7.3000e+00	1.0	obs
Temp_14_9	  6.2000e+00	1.0	obs
Temp_14_10	  5.6000e+00	1.0	obs
Temp_14_11	  5.4000e+00	1.0	obs
Temp_14_12	  5.4000e+00	1.0	obs
Temp_14_13	  5.4000e+00	1.0	obs
Temp_14_14	  5.3000e+00	1.0	obs
Temp_14_15	  5.3000e+00	1.0	obs
Temp_14_16	  5.3000e+00	1.0	obs
Temp_14_17	  5.3000e+00	1.0	obs
Temp_15_1	  1.7500e+01	1.0	obs
Temp_15_2	  1.7500e+01	1.0	obs
Temp_15_3	  1.7200e+01	1.0	obs
Temp_15_4	  1.6900e+01	1.0	obs
Temp_15_5	  1.6800e+01	1.0	obs
Temp_15_6	  1.2600e+01	1.0	obs
Temp_15_7	  1.0700e+01	1.0	obs
Temp_15_8	  8.4000e+00	1.0	obs
Temp_15_9	  6.4000e+00	1.0	obs
Temp_15_10	  5.7000e+00	1.0	obs
Temp_15_11	  5.4000e+00	1.0	obs
Temp_15_12	  5.4000e+00	1.0	obs
Temp_15_13	  5.4000e+00	1.0	obs
Temp_15_14	  5.3500e+00	1.0	obs
Temp_15_15	  5.3000e+00	1.0	obs
Temp_15_16	  5.3000e+00	1.0	obs
Temp_15_17	  5.3000e+00	1.0	obs
Temp_16_1	  1.8400e+01	1.0	obs
Temp_16_2	  1.8200e+01	1.0	obs
Temp_16_3	  1.8200e+01	1.0	obs
Temp_16_4	  1.8200e+01	1.0	obs
Temp_16_5	  1.8000e+01	1.0	obs
Temp_16_6	  1.5300e+01	1.0	obs
Temp_16_7	  1.2500e+01	1.0	obs
Temp_16_8	  9.4000e+00	1.0	obs
Temp_16_9	  6.6000e+00	1.0	obs
Temp_16_10	  5.7000e+00	1.0	obs
Temp_16_11	  5.5000e+00	1.0	obs
Temp_16_12	  5.4000e+00	1.0	obs
Temp_16_13	  5.4000e+00	1.0	obs
Temp_16_14	  5.3500e+00	1.0	obs
Temp_16_15	  5.3000e+00	1.0	obs
Temp_16_16	  5.2500e+00	1.0	obs
Temp_16_17	  5.3000e+00	1.0	obs
Temp_17_1	  1.6200e+01	1.0	obs
Temp_17_2	  1.5800e+01	1.0	obs
Temp_17_3	  1.5800e+01	1.0	obs
Temp_17_4	  1.5200e+01	1.0	obs
Temp_17_5	  1.5200e+01	1.0	obs
Temp_17_6	  1.5100e+01	1.0	obs
Temp_17_7	  1.5000e+01	1.0	obs
Temp_17_8	  1.2900e+01	1.0	obs
Temp_17_9	  7.2000e+00	1.0	obs
Temp_17_10	  5.8000e+00	1.0	obs
Temp_17_11	  5.4000e+00	1.0	obs
Temp_17_12	  5.4000e+00	1.0	obs
Temp_17_13	  5.4000e+00	1.0	obs
Temp_17_14	  5.3000e+00	1.0	obs
Temp_17_15	  5.3000e+00	1.0	obs
Temp_17_16	  5.3000e+00	1.0	obs
Temp_17_17	  5.3000e+00	1.0	obs
Temp_18_1	  1.4300e+01	1.0	obs
Temp_18_2	  1.4400e+01	1.0	obs
Temp_18_3	  1.4400e+01	1.0	obs
Temp_18_4	  1.4400e+01	1.0	obs
Temp_18_5	  1.4400e+01	1.0	obs
Temp_18_6	  1.3900e+01	1.0	obs
Temp_18_7	  1.3200e+01	1.0	obs
Temp_18_8	  9.5000e+00	1.0	obs
Temp_18_9	  7.0000e+00	1.0	obs
Temp_18_10	  5.7000e+00	1.0	obs
Temp_18_11	  5.5000e+00	1.0	obs
Temp_18_12	  5.4000e+00	1.0	obs
Temp_18_13	  5.3000e+00	1.0	obs
Temp_18_14	  5.3000e+00	1.0	obs
Temp_18_15	  5.3000e+00	1.0	obs
Temp_18_16	  5.3000e+00	1.0	obs
Temp_18_17	  5.3000e+00	1.0	obs
Temp_19_1	  1.2400e+01	1.0	obs
Temp_19_2	  1.2400e+01	1.0	obs
Temp_19_3	  1.2400e+01	1.0	obs
Temp_19_4	  1.2400e+01	1.0	obs
Temp_19_5	  1.2400e+01	1.0	obs
Temp_19_6	  1.2400e+01	1.0	obs
Temp_19_7	  1.2400e+01	1.0	obs
Temp_19_8	  1.2400e+01	1.0	obs
Temp_19_9	  7.4000e+00	1.0	obs
Temp_19_10	  5.9000e+00	1.0	obs
Temp_19_11	  5.5000e+00	1.0	obs
Temp_19_12	  5.4000e+00	1.0	obs
Temp_19_13	  5.4000e+00	1.0	obs
Temp_19_14	  5.3000e+00	1.0	obs
Temp_19_15	  5.3000e+00	1.0	obs
Temp_19_16	  5.3000e+00	1.0	obs
Temp_19_17	  5.3000e+00	1.0	obs
Temp_20_1	  8.9000e+00	1.0	obs
Temp_20_2	  9.2000e+00	1.0	obs
Temp_20_3	  9.2000e+00	1.0	obs
Temp_20_4	  9.2000e+00	1.0	obs
Temp_20_5	  9.2000e+00	1.0	obs
Temp_20_6	  9.2000e+00	1.0	obs
Temp_20_7	  7.9000e+00	1.0	obs
Temp_20_8	  6.7000e+00	1.0	obs
Temp_20_9	  6.1000e+00	1.0	obs
Temp_20_10	  5.5000e+00	1.0	obs
Temp_20_11	  5.4000e+00	1.0	obs
Temp_20_12	  5.3000e+00	1.0	obs
Temp_20_13	  5.3000e+00	1.0	obs
Temp_20_14	  5.3000e+00	1.0	obs
Temp_20_15	  5.3000e+00	1.0	obs
Temp_20_16	  5.3000e+00	1.0	obs
Temp_20_17	  5.3000e+00	1.0	obs
Temp_21_1	  6.5000e+00	1.0	obs
Temp_21_2	  6.1000e+00	1.0	obs
Temp_21_3	  6.1000e+00	1.0	obs
Temp_21_4	  6.1000e+00	1.0	obs
Temp_21_5	  6.1000e+00	1.0	obs
Temp_21_6	  6.1000e+00	1.0	obs
Temp_21_7	  6.1000e+00	1.0	obs
Temp_21_8	  6.1000e+00	1.0	obs
Temp_21_9	  6.0000e+00	1.0	obs
Temp_21_10	  5.6000e+00	1.0	obs
Temp_21_11	  5.4000e+00	1.0	obs
Temp_21_12	  5.3000e+00	1.0	obs
Temp_21_13	  5.3000e+00	1.0	obs
Temp_21_14	  5.3000e+00	1.0	obs
Temp_21_15	  5.3000e+00	1.0	obs
Temp_21_16	  5.3000e+00	1.0	obs
Temp_21_17	  5.2000e+00	1.0	obs
Temp_22_1	  6.1000e+00	1.0	obs
Temp_22_2	  6.1000e+00	1.0	obs
Temp_22_3	  6.1000e+00	1.0	obs
Temp_22_4	  6.1000e+00	1.0	obs
Temp_22_5	  6.1000e+00	1.0	obs
Temp_22_6	  6.1000e+00	1.0	obs
Temp_22_7	  6.1000e+00	1.0	obs
Temp_22_8	  6.1000e+00	1.0	obs
Temp_22_9	  6.0000e+00	1.0	obs
Temp_22_10	  5.8000e+00	1.0	obs
Temp_22_11	  5.4000e+00	1.0	obs
Temp_22_12	  5.3000e+00	1.0	obs
Temp_22_13	  5.3000e+00	1.0	obs
Temp_22_14	  5.3000e+00	1.0	obs
Temp_22_15	  5.3000e+00	1.0	obs
Temp_22_16	  5.3000e+00	1.0	obs
Temp_22_17	  5.3000e+00	1.0	obs
Temp_23_1	  5.9000e+00	1.0	obs
Temp_23_2	  5.9000e+00	1.0	obs
Temp_23_3	  5.9000e+00	1.0	obs
Temp_23_4	  5.9000e+00	1.0	obs
Temp_23_5	  5.9000e+00	1.0	obs
Temp_23_6	  5.9000e+00	1.0	obs
Temp_23_7	  5.9000e+00	1.0	obs
Temp_23_8	  5.9000e+00	1.0	obs
Temp_23_9	  5.9000e+00	1.0	obs
Temp_23_10	  5.6000e+00	1.0	obs
Temp_23_11	  5.4000e+00	1.0	obs
Temp_23_12	  5.4000e+00	1.0	obs
Temp_23_13	  5.4000e+00	1.0	obs
Temp_23_14	  5.3000e+00	1.0	obs
Temp_23_15	  5.3000e+00	1.0	obs
Temp_23_16	  5.3000e+00	1.0	obs
Temp_23_17	  5.3000e+00	1.0	obs
Temp_24_1	  5.9000e+00	1.0	obs
Temp_24_2	  5.9000e+00	1.0	obs
Temp_24_3	  6.0000e+00	1.0	obs
Temp_24_4	  6.0000e+00	1.0	obs
Temp_24_5	  6.0000e+00	1.0	obs
Temp_24_6	  6.0000e+00	1.0	obs
Temp_24_7	  6.0000e+00	1.0	obs
Temp_24_8	  6.0000e+00	1.0	obs
Temp_24_9	  5.9000e+00	1.0	obs
Temp_24_10	  5.8000e+00	1.0	obs
Temp_24_11	  5.5000e+00	1.0	obs
Temp_24_12	  5.4000e+00	1.0	obs
Temp_24_13	  5.4000e+00	1.0	obs
Temp_24_14	  5.4000e+00	1.0	obs
Temp_24_15	  5.4000e+00	1.0	obs
Temp_24_16	  5.4000e+00	1.0	obs
Temp_24_17	  5.4000e+00	1.0	obs
Temp_25_1	  7.0000e+00	1.0	obs
Temp_25_2	  6.8000e+00	1.0	obs
Temp_25_3	  6.5000e+00	1.0	obs
Temp_25_4	  6.4000e+00	1.0	obs
Temp_25_5	  6.2000e+00	1.0	obs
Temp_25_6	  6.1000e+00	1.0	obs
Temp_25_7	  5.9000e+00	1.0	obs
Temp_25_8	  5.9000e+00	1.0	obs
Temp_25_9	  5.9000e+00	1.0	obs
Temp_25_10	  5.8000e+00	1.0	obs
Temp_25_11	  5.5000e+00	1.0	obs
Temp_25_12	  5.4000e+00	1.0	obs
Temp_25_13	  5.4000e+00	1.0	obs
Temp_25_14	  5.4000e+00	1.0	obs
Temp_25_15	  5.4000e+00	1.0	obs
Temp_25_16	  5.4000e+00	1.0	obs
Temp_25_17	  5.4000e+00	1.0	obs
Temp_26_1	  7.4000e+00	1.0	obs
Temp_26_2	  7.3000e+00	1.0	obs
Temp_26_3	  7.3000e+00	1.0	obs
Temp_26_4	  7.3000e+00	1.0	obs
Temp_26_5	  7.3000e+00	1.0	obs
Temp_26_6	  7.3000e+00	1.0	obs
Temp_26_7	  7.1000e+00	1.0	obs
Temp_26_8	  6.8000e+00	1.0	obs
Temp_26_9	  6.4000e+00	1.0	obs
Temp_26_10	  5.9000e+00	1.0	obs
Temp_26_11	  5.5000e+00	1.0	obs
Temp_26_12	  5.5000e+00	1.0	obs
Temp_26_13	  5.5000e+00	1.0	obs
Temp_26_14	  5.4500e+00	1.0	obs
Temp_26_15	  5.4000e+00	1.0	obs
Temp_26_16	  5.4000e+00	1.0	obs
Temp_26_17	  5.4000e+00	1.0	obs
Temp_27_1	  8.9000e+00	1.0	obs
Temp_27_2	  8.7000e+00	1.0	obs
Temp_27_3	  7.8000e+00	1.0	obs
Temp_27_4	  7.8000e+00	1.0	obs
Temp_27_5	  7.7000e+00	1.0	obs
Temp_27_6	  7.4000e+00	1.0	obs
Temp_27_7	  7.2000e+00	1.0	obs
Temp_27_8	  6.9000e+00	1.0	obs
Temp_27_9	  6.2000e+00	1.0	obs
Temp_27_10	  5.9000e+00	1.0	obs
Temp_27_11	  5.5000e+00	1.0	obs
Temp_27_12	  5.4000e+00	1.0	obs
Temp_27_13	  5.4000e+00	1.0	obs
Temp_27_14	  5.4000e+00	1.0	obs
Temp_27_15	  5.4000e+00	1.0	obs
Temp_27_16	  5.4000e+00	1.0	obs
Temp_27_17	  5.4000e+00	1.0	obs
Temp_28_1	  1.2600e+01	1.0	obs
Temp_28_2	  1.2000e+01	1.0	obs
Temp_28_3	  1.0700e+01	1.0	obs
Temp_28_4	  1.0600e+01	1.0	obs
Temp_28_5	  1.0400e+01	1.0	obs
Temp_28_6	  8.2000e+00	1.0	obs
Temp_28_7	  7.9000e+00	1.0	obs
Temp_28_8	  7.4000e+00	1.0	obs
Temp_28_9	  7.0000e+00	1.0	obs
Temp_28_10	  6.7000e+00	1.0	obs
Temp_28_11	  5.6000e+00	1.0	obs
Temp_28_12	  5.6000e+00	1.0	obs
Temp_28_13	  5.6000e+00	1.0	obs
Temp_28_14	  5.6000e+00	1.0	obs
Temp_28_15	  5.6000e+00	1.0	obs
Temp_28_16	  5.6000e+00	1.0	obs
Temp_28_17	  5.6000e+00	1.0	obs
Temp_29_1	  1.9600e+01	1.0	obs
Temp_29_2	  1.9200e+01	1.0	obs
Temp_29_3	  1.5800e+01	1.0	obs
Temp_29_4	  1.2200e+01	1.0	obs
Temp_29_5	  1.0200e+01	1.0	obs
Temp_29_6	  8.6000e+00	1.0	obs
Temp_29_7	  7.9000e+00	1.0	obs
Temp_29_8	  7.1000e+00	1.0	obs
Temp_29_9	  6.4000e+00	1.0	obs
Temp_29_10	  6.1000e+00	1.0	obs
Temp_29_11	  5.8000e+00	1.0	obs
Temp_29_12	  5.6000e+00	1.0	obs
Temp_29_13	  5.5000e+00	1.0	obs
Temp_29_14	  5.5000e+00	1.0	obs
Temp_29_15	  5.5000e+00	1.0	obs
Temp_29_16	  5.5000e+00	1.0	obs
Temp_29_17	  5.5000e+00	1.0	obs
Temp_30_1	  1.8800e+01	1.0	obs
Temp_30_2	  1.8800e+01	1.0	obs
Temp_30_3	  1.8100e+01	1.0	obs
Temp_30_4	  1.7300e+01	1.0	obs
Temp_30_5	  1.5000e+01	1.0	obs
Temp_30_6	  1.3100e+01	1.0	obs
Temp_30_7	  9.0000e+00	1.0	obs
Temp_30_8	  7.5000e+00	1.0	obs
Temp_30_9	  7.0000e+00	1.0	obs
Temp_30_10	  6.0000e+00	1.0	obs
Temp_30_11	  5.5000e+00	1.0	obs
Temp_30_12	  5.5000e+00	1.0	obs
Temp_30_13	  5.5000e+00	1.0	obs
Temp_30_14	  5.5000e+00	1.0	obs
Temp_30_15	  5.4000e+00	1.0	obs
Temp_30_16	  5.4000e+00	1.0	obs
Temp_30_17	  5.4000e+00	1.0	obs
Temp_31_1	  2.0400e+01	1.0	obs
Temp_31_2	  1.9600e+01	1.0	obs
Temp_31_3	  1.9000e+01	1.0	obs
Temp_31_4	  1.6700e+01	1.0	obs
Temp_31_5	  1.3400e+01	1.0	obs
Temp_31_6	  1.0500e+01	1.0	obs
Temp_31_7	  8.6000e+00	1.0	obs
Temp_31_8	  7.3000e+00	1.0	obs
Temp_31_9	  6.7000e+00	1.0	obs
Temp_31_10	  6.1000e+00	1.0	obs
Temp_31_11	  5.6000e+00	1.0	obs
Temp_31_12	  5.5000e+00	1.0	obs
Temp_31_13	  5.5000e+00	1.0	obs
Temp_31_14	  5.5000e+00	1.0	obs
Temp_31_15	  5.5000e+00	1.0	obs
Temp_31_16	  5.5000e+00	1.0	obs
Temp_31_17	  5.4000e+00	1.0	obs
Temp_32_1	  2.1500e+01	1.0	obs
Temp_32_2	  2.1200e+01	1.0	obs
Temp_32_3	  2.0800e+01	1.0	obs
Temp_32_4	  1.8400e+01	1.0	obs
Temp_32_5	  1.1200e+01	1.0	obs
Temp_32_6	  9.2000e+00	1.0	obs
Temp_32_7	  8.1000e+00	1.0	obs
Temp_32_8	  7.3000e+00	1.0	obs
Temp_32_9	  6.8000e+00	1.0	obs
Temp_32_10	  6.0000e+00	1.0	obs
Temp_32_11	  5.6000e+00	1.0	obs
Temp_32_12	  5.6000e+00	1.0	obs
Temp_32_13	  5.6000e+00	1.0	obs
Temp_32_14	  5.5000e+00	1.0	obs
Temp_32_15	  5.5000e+00	1.0	obs
Temp_32_16	  5.5000e+00	1.0	obs
Temp_32_17	  5.4500e+00	1.0	obs
Temp_33_1	  1.9800e+01	1.0	obs
Temp_33_2	  1.9800e+01	1.0	obs
Temp_33_3	  1.9000e+01	1.0	obs
Temp_33_4	  1.8100e+01	1.0	obs
Temp_33_5	  1.6900e+01	1.0	obs
Temp_33_6	  1.2000e+01	1.0	obs
Temp_33_7	  9.6000e+00	1.0	obs
Temp_33_8	  7.7000e+00	1.0	obs
Temp_33_9	  7.0000e+00	1.0	obs
Temp_33_10	  5.9000e+00	1.0	obs
Temp_33_11	  5.6000e+00	1.0	obs
Temp_33_12	  5.5000e+00	1.0	obs
Temp_33_13	  5.5000e+00	1.0	obs
Temp_33_14	  5.5000e+00	1.0	obs
Temp_33_15	  5.4000e+00	1.0	obs
Temp_33_16	  5.4000e+00	1.0	obs
Temp_33_17	  5.4000e+00	1.0	obs
Temp_34_1	  2.2300e+01	1.0	obs
Temp_34_2	  2.1600e+01	1.0	obs
Temp_34_3	  2.1900e+01	1.0	obs
Temp_34_4	  1.9300e+01	1.0	obs
Temp_34_5	  1.6200e+01	1.0	obs
Temp_34_6	  1.1900e+01	1.0	obs
Temp_34_7	  1.0800e+01	1.0	obs
Temp_34_8	  8.2000e+00	1.0	obs
Temp_34_9	  7.1000e+00	1.0	obs
Temp_34_10	  6.2000e+00	1.0	obs
Temp_34_11	  5.6000e+00	1.0	obs
Temp_34_12	  5.6000e+00	1.0	obs
Temp_34_13	  5.6000e+00	1.0	obs
Temp_34_14	  5.6000e+00	1.0	obs
Temp_34_15	  5.6000e+00	1.0	obs
Temp_34_16	  5.6000e+00	1.0	obs
Temp_34_17	  5.6000e+00	1.0	obs
Temp_35_1	  1.8000e+01	1.0	obs
Temp_35_2	  1.8000e+01	1.0	obs
Temp_35_3	  1.7900e+01	1.0	obs
Temp_35_4	  1.7700e+01	1.0	obs
Temp_35_5	  1.6600e+01	1.0	obs
Temp_35_6	  1.2400e+01	1.0	obs
Temp_35_7	  1.0100e+01	1.0	obs
Temp_35_8	  7.8000e+00	1.0	obs
Temp_35_9	  7.1000e+00	1.0	obs
Temp_35_10	  6.0000e+00	1.0	obs
Temp_35_11	  5.6000e+00	1.0	obs
Temp_35_12	  5.5000e+00	1.0	obs
Temp_35_13	  5.5000e+00	1.0	obs
Temp_35_14	  5.5000e+00	1.0	obs
Temp_35_15	  5.5000e+00	1.0	obs
Temp_35_16	  5.5000e+00	1.0	obs
Temp_35_17	  5.5000e+00	1.0	obs
Temp_36_1	  1.9900e+01	1.0	obs
Temp_36_2	  1.9900e+01	1.0	obs
Temp_36_3	  1.9900e+01	1.0	obs
Temp_36_4	  1.8700e+01	1.0	obs
Temp_36_5	  1.5300e+01	1.0	obs
Temp_36_6	  1.2100e+01	1.0	obs
Temp_36_7	  1.0200e+01	1.0	obs
Temp_36_8	  7.7000e+00	1.0	obs
Temp_36_9	  7.1000e+00	1.0	obs
Temp_36_10	  6.1000e+00	1.0	obs
Temp_36_11	  5.6000e+00	1.0	obs
Temp_36_12	  5.5000e+00	1.0	obs
Temp_36_13	  5.5000e+00	1.0	obs
Temp_36_14	  5.5000e+00	1.0	obs
Temp_36_15	  5.5000e+00	1.0	obs
Temp_36_16	  5.5000e+00	1.0	obs
Temp_36_17	  5.5000e+00	1.0	obs
Temp_37_1	  1.7100e+01	1.0	obs
Temp_37_2	  1.7100e+01	1.0	obs
Temp_37_3	  1.7100e+01	1.0	obs
Temp_37_4	  1.7000e+01	1.0	obs
Temp_37_5	  1.6500e+01	1.0	obs
Temp_37_6	  1.2900e+01	1.0	obs
Temp_37_7	  1.1200e+01	1.0	obs
Temp_37_8	  8.8000e+00	1.0	obs
Temp_37_9	  7.0000e+00	1.0	obs
Temp_37_10	  6.0000e+00	1.0	obs
Temp_37_11	  5.7000e+00	1.0	obs
Temp_37_12	  5.4000e+00	1.0	obs
Temp_37_13	  5.4000e+00	1.0	obs
Temp_37_14	  5.4000e+00	1.0	obs
Temp_37_15	  5.4000e+00	1.0	obs
Temp_37_16	  5.4000e+00	1.0	obs
Temp_37_17	  5.4000e+00	1.0	obs
Temp_38_1	  1.3100e+01	1.0	obs
Temp_38_2	  1.3000e+01	1.0	obs
Temp_38_3	  1.2900e+01	1.0	obs
Temp_38_4	  1.2900e+01	1.0	obs
Temp_38_5	  1.2900e+01	1.0	obs
Temp_38_6	  1.2600e+01	1.0	obs
Temp_38_7	  1.2200e+01	1.0	obs
Temp_38_8	  1.0200e+01	1.0	obs
Temp_38_9	  7.1000e+00	1.0	obs
Temp_38_10	  6.0000e+00	1.0	obs
Temp_38_11	  5.5000e+00	1.0	obs
Temp_38_12	  5.4000e+00	1.0	obs
Temp_38_13	  5.4000e+00	1.0	obs
Temp_38_14	  5.4000e+00	1.0	obs
Temp_38_15	  5.4000e+00	1.0	obs
Temp_38_16	  5.4000e+00	1.0	obs
Temp_38_17	  5.4000e+00	1.0	obs
Temp_39_1	  1.2600e+01	1.0	obs
Temp_39_2	  1.2600e+01	1.0	obs
Temp_39_3	  1.2600e+01	1.0	obs
Temp_39_4	  1.2600e+01	1.0	obs
Temp_39_5	  1.2600e+01	1.0	obs
Temp_39_6	  1.1900e+01	1.0	obs
Temp_39_7	  1.0500e+01	1.0	obs
Temp_39_8	  8.0000e+00	1.0	obs
Temp_39_9	  7.0000e+00	1.0	obs
Temp_39_10	  6.1000e+00	1.0	obs
Temp_39_11	  5.5000e+00	1.0	obs
Temp_39_12	  5.5000e+00	1.0	obs
Temp_39_13	  5.4000e+00	1.0	obs
Temp_39_14	  5.4000e+00	1.0	obs
Temp_39_15	  5.4000e+00	1.0	obs
Temp_39_16	  5.4000e+00	1.0	obs
Temp_39_17	  5.4000e+00	1.0	obs
Temp_40_1	  1.0300e+01	1.0	obs
Temp_40_2	  1.0200e+01	1.0	obs
Temp_40_3	  1.0200e+01	1.0	obs
Temp_40_4	  1.0200e+01	1.0	obs
Temp_40_5	  1.0200e+01	1.0	obs
Temp_40_6	  1.0200e+01	1.0	obs
Temp_40_7	  1.0200e+01	1.0	obs
Temp_40_8	  9.8000e+00	1.0	obs
Temp_40_9	  8.4000e+00	1.0	obs
Temp_40_10	  6.3000e+00	1.0	obs
Temp_40_11	  5.7000e+00	1.0	obs
Temp_40_12	  5.6000e+00	1.0	obs
Temp_40_13	  5.5000e+00	1.0	obs
Temp_40_14	  5.5000e+00	1.0	obs
Temp_40_15	  5.5000e+00	1.0	obs
Temp_40_16	  5.5000e+00	1.0	obs
Temp_40_17	  5.5000e+00	1.0	obs
Temp_41_1	  8.8000e+00	1.0	obs
Temp_41_2	  8.8000e+00	1.0	obs
Temp_41_3	  8.8000e+00	1.0	obs
Temp_41_4	  8.8000e+00	1.0	obs
Temp_41_5	  8.8000e+00	1.0	obs
Temp_41_6	  8.8000e+00	1.0	obs
Temp_41_7	  8.8000e+00	1.0	obs
Temp_41_8	  8.8000e+00	1.0	obs
Temp_41_9	  8.6000e+00	1.0	obs
Temp_41_10	  6.5000e+00	1.0	obs
Temp_41_11	  5.8000e+00	1.0	obs
Temp_41_12	  5.6000e+00	1.0	obs
Temp_41_13	  5.6000e+00	1.0	obs
Temp_41_14	  5.5000e+00	1.0	obs
Temp_41_15	  5.5000e+00	1.0	obs
Temp_41_16	  5.5000e+00	1.0	obs
Temp_41_17	  5.5000e+00	1.0	obs
Temp_42_1	  7.0000e+00	1.0	obs
Temp_42_2	  7.0000e+00	1.0	obs
Temp_42_3	  7.0000e+00	1.0	obs
Temp_42_4	  7.0000e+00	1.0	obs
Temp_42_5	  7.0000e+00	1.0	obs
Temp_42_6	  7.0000e+00	1.0	obs
Temp_42_7	  7.0000e+00	1.0	obs
Temp_42_8	  7.0000e+00	1.0	obs
Temp_42_9	  7.0000e+00	1.0	obs
Temp_42_10	  7.0000e+00	1.0	obs
Temp_42_11	  5.6000e+00	1.0	obs
Temp_42_12	  5.5000e+00	1.0	obs
Temp_42_13	  5.4000e+00	1.0	obs
Temp_42_14	  5.4000e+00	1.0	obs
Temp_42_15	  5.4000e+00	1.0	obs
Temp_42_16	  5.4000e+00	1.0	obs
Temp_42_17	  5.4000e+00	1.0	obs
Temp_43_1	  6.2000e+00	1.0	obs
Temp_43_2	  6.1000e+00	1.0	obs
Temp_43_3	  6.1000e+00	1.0	obs
Temp_43_4	  6.1000e+00	1.0	obs
Temp_43_5	  6.0000e+00	1.0	obs
Temp_43_6	  5.9000e+00	1.0	obs
Temp_43_7	  5.9000e+00	1.0	obs
Temp_43_8	  5.9000e+00	1.0	obs
Temp_43_9	  5.9000e+00	1.0	obs
Temp_43_10	  5.8000e+00	1.0	obs
Temp_43_11	  5.5000e+00	1.0	obs
Temp_43_12	  5.5000e+00	1.0	obs
Temp_43_13	  5.5000e+00	1.0	obs
Temp_43_14	  5.5000e+00	1.0	obs
Temp_43_15	  5.5000e+00	1.0	obs
Temp_43_16	  5.0000e+00	1.0	obs
Temp_43_17	  5.5000e+00	1.0	obs
Temp_44_1	  6.2000e+00	1.0	obs
Temp_44_2	  6.1000e+00	1.0	obs
Temp_44_3	  6.1000e+00	1.0	obs
Temp_44_4	  6.0000e+00	1.0	obs
Temp_44_5	  6.0000e+00	1.0	obs
Temp_44_6	  6.0000e+00	1.0	obs
Temp_44_7	  6.0000e+00	1.0	obs
Temp_44_8	  6.0000e+00	1.0	obs
Temp_44_9	  6.0000e+00	1.0	obs
Temp_44_10	  5.8000e+00	1.0	obs
Temp_44_11	  5.6000e+00	1.0	obs
Temp_44_12	  5.6000e+00	1.0	obs
Temp_44_13	  5.5000e+00	1.0	obs
Temp_44_14	  5.5000e+00	1.0	obs
Temp_44_15	  5.5000e+00	1.0	obs
Temp_44_16	  5.5000e+00	1.0	obs
Temp_44_17	  5.5000e+00	1.0	obs
Temp_45_1	  6.9000e+00	1.0	obs
Temp_45_2	  6.6000e+00	1.0	obs
Temp_45_3	  6.3000e+00	1.0	obs
Temp_45_4	  6.3000e+00	1.0	obs
Temp_45_5	  6.2000e+00	1.0	obs
Temp_45_6	  6.2000e+00	1.0	obs
Temp_45_7	  6.2000e+00	1.0	obs
Temp_45_8	  6.0000e+00	1.0	obs
Temp_45_9	  6.0000e+00	1.0	obs
Temp_45_10	  5.9000e+00	1.0	obs
Temp_45_11	  5.6000e+00	1.0	obs
Temp_45_12	  5.5000e+00	1.0	obs
Temp_45_13	  5.5000e+00	1.0	obs
Temp_45_14	  5.5000e+00	1.0	obs
Temp_45_15	  5.5000e+00	1.0	obs
Temp_45_16	  5.5000e+00	1.0	obs
Temp_45_17	  5.5000e+00	1.0	obs
Temp_46_1	  8.7000e+00	1.0	obs
Temp_46_2	  8.5000e+00	1.0	obs
Temp_46_3	  7.9000e+00	1.0	obs
Temp_46_4	  7.7000e+00	1.0	obs
Temp_46_5	  7.6000e+00	1.0	obs
Temp_46_6	  7.4000e+00	1.0	obs
Temp_46_7	  7.1000e+00	1.0	obs
Temp_46_8	  6.5000e+00	1.0	obs
Temp_46_9	  6.3000e+00	1.0	obs
Temp_46_10	  6.0000e+00	1.0	obs
Temp_46_11	  5.6000e+00	1.0	obs
Temp_46_12	  5.5000e+00	1.0	obs
Temp_46_13	  5.5000e+00	1.0	obs
Temp_46_14	  5.5000e+00	1.0	obs
Temp_46_15	  5.5000e+00	1.0	obs
Temp_46_16	  5.5000e+00	1.0	obs
Temp_46_17	  5.5000e+00	1.0	obs
Temp_47_1	  1.0900e+01	1.0	obs
Temp_47_2	  1.0700e+01	1.0	obs
Temp_47_3	  1.0600e+01	1.0	obs
Temp_47_4	  1.0200e+01	1.0	obs
Temp_47_5	  8.9000e+00	1.0	obs
Temp_47_6	  8.6000e+00	1.0	obs
Temp_47_7	  8.5000e+00	1.0	obs
Temp_47_8	  8.0000e+00	1.0	obs
Temp_47_9	  6.5000e+00	1.0	obs
Temp_47_10	  6.0000e+00	1.0	obs
Temp_47_11	  5.5000e+00	1.0	obs
Temp_47_12	  5.5000e+00	1.0	obs
Temp_47_13	  5.5000e+00	1.0	obs
Temp_47_14	  5.5000e+00	1.0	obs
Temp_47_15	  5.5000e+00	1.0	obs
Temp_47_16	  5.5000e+00	1.0	obs
Temp_47_17	  5.5000e+00	1.0	obs
Temp_48_1	  1.0500e+01	1.0	obs
Temp_48_2	  1.0500e+01	1.0	obs
Temp_48_3	  1.0400e+01	1.0	obs
Temp_48_4	  9.9000e+00	1.0	obs
Temp_48_5	  8.0000e+00	1.0	obs
Temp_48_6	  7.7000e+00	1.0	obs
Temp_48_7	  7.7000e+00	1.0	obs
Temp_48_8	  6.9000e+00	1.0	obs
Temp_48_9	  6.4000e+00	1.0	obs
Temp_48_10	  6.0000e+00	1.0	obs
Temp_48_11	  5.6000e+00	1.0	obs
Temp_48_12	  5.6000e+00	1.0	obs
Temp_48_13	  5.6000e+00	1.0	obs
Temp_48_14	  5.6000e+00	1.0	obs
Temp_48_15	  5.6000e+00	1.0	obs
Temp_48_16	  5.6000e+00	1.0	obs
Temp_48_17	  5.6000e+00	1.0	obs
Temp_49_1	  1.6500e+01	1.0	obs
Temp_49_2	  1.3000e+01	1.0	obs
Temp_49_3	  1.0900e+01	1.0	obs
Temp_49_4	  1.0400e+01	1.0	obs
Temp_49_5	  1.0300e+01	1.0	obs
Temp_49_6	  1.0000e+01	1.0	obs
Temp_49_7	  8.7000e+00	1.0	obs
Temp_49_8	  7.2000e+00	1.0	obs
Temp_49_9	  6.5000e+00	1.0	obs
Temp_49_10	  6.0000e+00	1.0	obs
Temp_49_11	  5.6000e+00	1.0	obs
Temp_49_12	  5.6000e+00	1.0	obs
Temp_49_13	  5.6000e+00	1.0	obs
Temp_49_14	  5.6000e+00	1.0	obs
Temp_49_15	  5.6000e+00	1.0	obs
Temp_49_16	  5.6000e+00	1.0	obs
Temp_49_17	  5.6000e+00	1.0	obs
Temp_50_1	  1.3000e+01	1.0	obs
Temp_50_2	  1.2800e+01	1.0	obs
Temp_50_3	  1.2400e+01	1.0	obs
Temp_50_4	  1.1600e+01	1.0	obs
Temp_50_5	  1.1400e+01	1.0	obs
Temp_50_6	  1.0900e+01	1.0	obs
Temp_50_7	  9.5000e+00	1.0	obs
Temp_50_8	  7.6000e+00	1.0	obs
Temp_50_9	  6.5000e+00	1.0	obs
Temp_50_10	  6.3000e+00	1.0	obs
Temp_50_11	  5.6000e+00	1.0	obs
Temp_50_12	  5.6000e+00	1.0	obs
Temp_50_13	  5.6000e+00	1.0	obs
Temp_50_14	  5.6000e+00	1.0	obs
Temp_50_15	  5.6000e+00	1.0	obs
Temp_50_16	  5.6000e+00	1.0	obs
Temp_50_17	  5.6000e+00	1.0	obs
Temp_51_1	  1.9100e+01	1.0	obs
Temp_51_2	  1.9000e+01	1.0	obs
Temp_51_3	  1.6300e+01	1.0	obs
Temp_51_4	  1.5500e+01	1.0	obs
Temp_51_5	  1.2100e+01	1.0	obs
Temp_51_6	  1.0000e+01	1.0	obs
Temp_51_7	  9.0000e+00	1.0	obs
Temp_51_8	  7.5000e+00	1.0	obs
Temp_51_9	  6.5000e+00	1.0	obs
Temp_51_10	  6.3000e+00	1.0	obs
Temp_51_11	  5.8000e+00	1.0	obs
Temp_51_12	  5.6000e+00	1.0	obs
Temp_51_13	  5.6000e+00	1.0	obs
Temp_51_14	  5.6000e+00	1.0	obs
Temp_51_15	  5.6000e+00	1.0	obs
Temp_51_16	  5.6000e+00	1.0	obs
Temp_51_17	  5.6000e+00	1.0	obs
Temp_52_1	  2.3400e+01	1.0	obs
Temp_52_2	  2.3100e+01	1.0	obs
Temp_52_3	  2.0100e+01	1.0	obs
Temp_52_4	  1.4200e+01	1.0	obs
Temp_52_5	  1.2300e+01	1.0	obs
Temp_52_6	  1.0400e+01	1.0	obs
Temp_52_7	  9.6000e+00	1.0	obs
Temp_52_8	  7.6000e+00	1.0	obs
Temp_52_9	  6.5000e+00	1.0	obs
Temp_52_10	  5.9000e+00	1.0	obs
Temp_52_11	  5.6000e+00	1.0	obs
Temp_52_12	  5.6000e+00	1.0	obs
Temp_52_13	  5.6000e+00	1.0	obs
Temp_52_14	  5.6000e+00	1.0	obs
Temp_52_15	  5.6000e+00	1.0	obs
Temp_52_16	  5.6000e+00	1.0	obs
Temp_52_17	  5.6000e+00	1.0	obs
Temp_53_1	  2.3400e+01	1.0	obs
Temp_53_2	  2.3400e+01	1.0	obs
Temp_53_3	  2.2200e+01	1.0	obs
Temp_53_4	  2.1200e+01	1.0	obs
Temp_53_5	  1.6000e+01	1.0	obs
Temp_53_6	  1.1400e+01	1.0	obs
Temp_53_7	  1.0700e+01	1.0	obs
Temp_53_8	  9.5000e+00	1.0	obs
Temp_53_9	  6.9000e+00	1.0	obs
Temp_53_10	  6.7000e+00	1.0	obs
Temp_53_11	  5.7000e+00	1.0	obs
Temp_53_12	  5.6000e+00	1.0	obs
Temp_53_13	  5.6000e+00	1.0	obs
Temp_53_14	  5.6000e+00	1.0	obs
Temp_53_15	  5.6000e+00	1.0	obs
Temp_53_16	  5.6000e+00	1.0	obs
Temp_53_17	  5.6000e+00	1.0	obs
Temp_54_1	  2.0900e+01	1.0	obs
Temp_54_2	  2.0600e+01	1.0	obs
Temp_54_3	  1.7100e+01	1.0	obs
Temp_54_4	  1.3100e+01	1.0	obs
Temp_54_5	  1.2200e+01	1.0	obs
Temp_54_6	  1.0500e+01	1.0	obs
Temp_54_7	  9.8000e+00	1.0	obs
Temp_54_8	  8.5000e+00	1.0	obs
Temp_54_9	  7.0000e+00	1.0	obs
Temp_54_10	  6.6000e+00	1.0	obs
Temp_54_11	  5.8000e+00	1.0	obs
Temp_54_12	  5.8000e+00	1.0	obs
Temp_54_13	  5.8000e+00	1.0	obs
Temp_54_14	  5.8000e+00	1.0	obs
Temp_54_15	  5.8000e+00	1.0	obs
Temp_54_16	  5.8000e+00	1.0	obs
Temp_54_17	  5.8000e+00	1.0	obs
Temp_55_1	  2.0100e+01	1.0	obs
Temp_55_2	  2.0000e+01	1.0	obs
Temp_55_3	  1.9900e+01	1.0	obs