pcf
* control data
restart estimation
13 1933 1 0 1
1 1 single nopoint 1 0 0
5.0 2.0 0.3 0.01 10
5.0 5.0 0.001
0.1
30 0.005 4 3 0.01 3
1 1 1
* parameter groups
 fit	relative	0.01	0.00001	switch	2.0	parabolic
* parameter data
   lat	fixed	factor	4.6900e+01	4.0000e+01	5.0000e+01	none	1.0	0.0	1
  pair	fixed	factor	9.9000e+02	9.0000e+02	1.0000e+03	none	1.0	0.0	1
 alpha	none	factor	1.0000e-02	1.0000e-03	1.0000e-01	 fit	1.0	0.0	1
   qNN	fixed	factor	1.2500e+00	7.0000e-01	1.3000e+00	none	1.0	0.0	1
 fwind	fixed	factor	1.0000e+00	1.0000e+00	2.0000e+00	none	1.0	0.0	1
   C10	fixed	factor	1.7000e-03	1.0000e-03	3.0000e-03	none	1.0	0.0	1
    CD	fixed	factor	2.0000e-03	1.0000e-03	5.0000e-03	none	1.0	0.0	1
  fgeo	fixed	factor	1.5000e-01	0.0000e+00	1.0000e+00	none	1.0	0.0	1
  kmin	fixed	factor	1.0000e-15	1.0000e-30	1.0000e-09	none	1.0	0.0	1
    p1	none	factor	1.1000e+00	8.0000e-01	1.2500e+00	 fit	1.0	0.0	1
    p2	none	factor	9.0000e-01	8.0000e-01	1.2500e+00	 fit	1.0	0.0	1
  beta	fixed	relative	3.0000e-01	0.0000e+00	4.0000e-01	none	1.0	0.0	1
 albsw	fixed	relative	2.0000e-01	0.0000e+00	3.0000e-01	none	1.0	0.0	1
* observation groups
obs
* observation data
Temp_1_1	  5.4000e+00	1.0	obs
Temp_1_2	  5.4000e+00	1.0	obs
Temp_1_3	  5.3000e+00	1.0	obs
Temp_1_4	  5.3000e+00	1.0	obs
Temp_1_5	  5.2000e+00	1.0	obs
Temp_1_6	  5.1000e+00	1.0	obs
Temp_1_7	  5.1000e+00	1.0	obs
Temp_1_8	  5.1000e+00	1.0	obs
Temp_1_9	  5.1000e+00	1.0	obs
Temp_1_10	  5.0000e+00	1.0	obs
Temp_1_11	  5.0000e+00	1.0	obs
Temp_2_1	  8.6000e+00	1.0	obs
Temp_2_2	  8.3000e+00	1.0	obs
Temp_2_3	  6.8000e+00	1.0	obs
Temp_2_4	  6.4000e+00	1.0	obs
Temp_2_5	  6.4000e+00	1.0	obs
Temp_2_6	  6.3000e+00	1.0	obs
Temp_2_7	  6.3000e+00	1.0	obs
Temp_2_8	  6.0000e+00	1.0	obs
Temp_2_9	  5.5000e+00	1.0	obs
Temp_2_10	  5.2000e+00	1.0	obs
Temp_2_11	  5.2000e+00	1.0	obs
Temp_3_1	  1.4600e+01	1.0	obs
Temp_3_2	  1.4500e+01	1.0	obs
Temp_3_3	  1.4200e+01	1.0	obs
Temp_3_4	  1.0700e+01	1.0	obs
Temp_3_5	  8.2000e+00	1.0	obs
Temp_3_6	  7.0000e+00	1.0	obs
Temp_3_7	  6.6000e+00	1.0	obs
Temp_3_8	  6.2000e+00	1.0	obs
Temp_3_9	  5.6000e+00	1.0	obs
Temp_3_10	  5.4000e+00	1.0	obs
Temp_3_11	  5.4000e+00	1.0	obs
Temp_4_1	  2.5700e+01	1.0	obs
Temp_4_2	  2.0000e+01	1.0	obs
Temp_4_3	  1.4800e+01	1.0	obs
Temp_4_4	  1.2000e+01	1.0	obs
Temp_4_5	  1.0600e+01	1.0	obs
Temp_4_6	  9.4000e+00	1.0	obs
Temp_4_7	  7.4000e+00	1.0	obs
Temp_4_8	  6.5000e+00	1.0	obs
Temp_4_9	  5.8000e+00	1.0	obs
Temp_4_10	  5.4000e+00	1.0	obs
Temp_4_11	  5.4000e+00	1.0	obs
Temp_5_1	  2.3700e+01	1.0	obs
Temp_5_2	  2.3000e+01	1.0	obs
Temp_5_3	  1.8300e+01	1.0	obs
Temp_5_4	  1.2500e+01	1.0	obs
Temp_5_5	  9.9000e+00	1.0	obs
Temp_5_6	  8.5000e+00	1.0	obs
Temp_5_7	  7.8000e+00	1.0	obs
Temp_5_8	  6.8000e+00	1.0	obs
Temp_5_9	  5.7000e+00	1.0	obs
Temp_5_10	  5.5000e+00	1.0	obs
Temp_5_11	  5.4000e+00	1.0	obs
Temp_6_1	  1.8700e+01	1.0	obs
Temp_6_2	  1.8700e+01	1.0	obs
Temp_6_3	  1.8700e+01	1.0	obs
Temp_6_4	  1.8300e+01	1.0	obs
Temp_6_5	  1.3400e+01	1.0	obs
Temp_6_6	  1.0900e+01	1.0	obs
Temp_6_7	  8.9000e+00	1.0	obs
Temp_6_8	  7.1000e+00	1.0	obs
Temp_6_9	  5.6000e+00	1.0	obs
Temp_6_10	  5.5000e+00	1.0	obs
Temp_6_11	  5.4000e+00	1.0	obs
Temp_7_1	  1.2500e+01	1.0	obs
Temp_7_2	  1.2500e+01	1.0	obs
Temp_7_3	  1.2500e+01	1.0	obs
Temp_7_4	  1.2500e+01	1.0	obs
Temp_7_5	  1.2400e+01	1.0	obs
Temp_7_6	  1.2000e+01	1.0	obs
Temp_7_7	  1.1200e+01	1.0	obs
Temp_7_8	  7.2000e+00	1.0	obs
Temp_7_9	  5.8000e+00	1.0	obs
Temp_7_10	  5.6000e+00	1.0	obs
Temp_7_11	  5.6000e+00	1.0	obs
Temp_8_1	  9.4000e+00	1.0	obs
Temp_8_2	  9.4000e+00	1.0	obs
Temp_8_3	  9.4000e+00	1.0	obs
Temp_8_4	  9.4000e+00	1.0	obs
Temp_8_5	  9.2000e+00	1.0	obs
Temp_8_6	  9.2000e+00	1.0	obs
Temp_8_7	  8.8000e+00	1.0	obs
Temp_8_8	  8.0000e+00	1.0	obs
Temp_8_9	  5.7000e+00	1.0	obs
Temp_8_10	  5.2000e+00	1.0	obs
Temp_8_11	  5.2000e+00	1.0	obs
Temp_9_1	  9.3000e+00	1.0	obs
Temp_9_2	  9.2000e+00	1.0	obs
Temp_9_3	  8.6000e+00	1.0	obs
Temp_9_4	  8.0000e+00	1.0	obs
Temp_9_5	  7.4000e+00	1.0	obs
Temp_9_6	  7.2000e+00	1.0	obs
Temp_9_7	  7.0000e+00	1.0	obs
Temp_9_8	  6.7000e+00	1.0	obs
Temp_9_9	  5.9000e+00	1.0	obs
Temp_9_10	  5.7000e+00	1.0	obs
Temp_9_11	  5.7000e+00	1.0	obs
Temp_10_1	  1.4400e+01	1.0	obs
Temp_10_2	  1.4400e+01	1.0	obs
Temp_10_3	  1.1600e+01	1.0	obs
Temp_10_4	  1.0200e+01	1.0	obs
Temp_10_5	  9.5000e+00	1.0	obs
Temp_10_6	  8.5000e+00	1.0	obs
Temp_10_7	  8.0000e+00	1.0	obs
Temp_10_8	  7.4000e+00	1.0	obs
Temp_10_9	  6.0000e+00	1.0	obs
Temp_10_10	  5.8000e+00	1.0	obs
Temp_10_11	  5.8000e+00	1.0	obs
Temp_11_1	  2.1800e+01	1.0	obs
Temp_11_2	  2.1800e+01	1.0	obs
Temp_11_3	  2.1700e+01	1.0	obs
Temp_11_4	  1.5400e+01	1.0	obs
Temp_11_5	  1.1000e+01	1.0	obs
Temp_11_6	  9.0000e+00	1.0	obs
Temp_11_7	  8.4000e+00	1.0	obs
Temp_11_8	  7.6000e+00	1.0	obs
Temp_11_9	  6.1000e+00	1.0	obs
Temp_11_10	  5.9000e+00	1.0	obs
Temp_11_11	  5.9000e+00	1.0	obs
Temp_12_1	  2.1600e+01	1.0	obs
Temp_12_2	  2.1600e+01	1.0	obs
Temp_12_3	  2.1300e+01	1.0	obs
Temp_12_4	  1.7800e+01	1.0	obs
Temp_12_5	  1.2600e+01	1.0	obs
Temp_12_6	  9.4000e+00	1.0	obs
Temp_12_7	  8.0000e+00	1.0	obs
Temp_12_8	  7.1000e+00	1.0	obs
Temp_12_9	  6.2000e+00	1.0	obs
Temp_12_10	  5.8000e+00	1.0	obs
Temp_12_11	  5.8000e+00	1.0	obs
Temp_13_1	  1.7300e+01	1.0	obs
Temp_13_2	  1.7300e+01	1.0	obs
Temp_13_3	  1.7300e+01	1.0	obs
Temp_13_4	  1.7000e+01	1.0	obs
Temp_13_5	  1.6400e+01	1.0	obs
Temp_13_6	  1.0800e+01	1.0	obs
Temp_13_7	  9.3000e+00	1.0	obs
Temp_13_8	  7.4000e+00	1.0	obs
Temp_13_9	  6.1000e+00	1.0	obs
Temp_13_10	  5.9000e+00	1.0	obs
Temp_13_11	  5.9000e+00	1.0	obs
Temp_14_1	  1.4800e+01	1.0	obs
Temp_14_2	  1.4800e+01	1.0	obs
Temp_14_3	  1.4800e+01	1.0	obs
Temp_14_4	  1.3900e+01	1.0	obs
Temp_14_5	  1.2900e+01	1.0	obs
Temp_14_6	  1.2200e+01	1.0	obs
Temp_14_7	  1.1400e+01	1.0	obs
Temp_14_8	  7.5000e+00	1.0	obs
Temp_14_9	  6.1000e+00	1.0	obs
Temp_14_10	  5.7000e+00	1.0	obs
Temp_14_11	  5.7000e+00	1.0	obs
Temp_15_1	  9.7000e+00	1.0	obs
Temp_15_2	  9.6000e+00	1.0	obs
Temp_15_3	  9.6000e+00	1.0	obs
Temp_15_4	  9.6000e+00	1.0	obs
Temp_15_5	  9.6000e+00	1.0	obs
Temp_15_6	  9.6000e+00	1.0	obs
Temp_15_7	  9.6000e+00	1.0	obs
Temp_15_8	  9.0000e+00	1.0	obs
Temp_15_9	  6.3000e+00	1.0	obs
Temp_15_10	  5.9000e+00	1.0	obs
Temp_15_11	  5.9000e+00	1.0	obs
Temp_16_1	  5.0000e+00	1.0	obs
Temp_16_2	  5.0000e+00	1.0	obs
Temp_16_3	  5.0000e+00	1.0	obs
Temp_16_4	  4.9000e+00	1.0	obs
Temp_16_5	  4.9000e+00	1.0	obs
Temp_16_6	  4.9000e+00	1.0	obs
Temp_16_7	  4.9000e+00	1.0	obs
Temp_16_8	  4.9000e+00	1.0	obs
Temp_16_9	  4.9000e+00	1.0	obs
Temp_16_10	  4.9000e+00	1.0	obs
Temp_16_11	  4.9000e+00	1.0	obs
Temp_17_1	  1.0500e+01	1.0	obs
Temp_17_2	  1.0400e+01	1.0	obs
Temp_17_3	  1.0300e+01	1.0	obs
Temp_17_4	  9.4000e+00	1.0	obs
Temp_17_5	  8.3000e+00	1.0	obs
Temp_17_6	  8.3000e+00	1.0	obs
Temp_17_7	  7.0000e+00	1.0	obs
Temp_17_8	  5.8000e+00	1.0	obs
Temp_17_9	  5.4000e+00	1.0	obs
Temp_17_10	  5.2000e+00	1.0	obs
Temp_17_11	  5.2000e+00	1.0	obs
Temp_18_1	  1.9700e+01	1.0	obs
Temp_18_2	  1.8700e+01	1.0	obs
Temp_18_3	  1.4500e+01	1.0	obs
Temp_18_4	  1.2200e+01	1.0	obs
Temp_18_5	  9.8000e+00	1.0	obs
Temp_18_6	  7.3000e+00	1.0	obs
Temp_18_7	  6.3000e+00	1.0	obs
Temp_18_8	  5.7000e+00	1.0	obs
Temp_18_9	  5.2000e+00	1.0	obs
Temp_18_10	  5.1000e+00	1.0	obs
Temp_18_11	  5.1000e+00	1.0	obs
Temp_19_1	  1.9700e+01	1.0	obs
Temp_19_2	  1.9200e+01	1.0	obs
Temp_19_3	  1.6800e+01	1.0	obs
Temp_19_4	  1.6500e+01	1.0	obs
Temp_19_5	  1.4000e+01	1.0	obs
Temp_19_6	  1.0300e+01	1.0	obs
Temp_19_7	  8.6000e+00	1.0	obs
Temp_19_8	  7.1000e+00	1.0	obs
Temp_19_9	  5.4000e+00	1.0	obs
Temp_19_10	  5.2000e+00	1.0	obs
Temp_19_11	  5.2000e+00	1.0	obs
Temp_20_1	  1.9800e+01	1.0	obs
Temp_20_2	  1.9800e+01	1.0	obs
Temp_20_3	  1.9700e+01	1.0	obs
Temp_20_4	  1.9600e+01	1.0	obs
Temp_20_5	  1.3400e+01	1.0	obs
Temp_20_6	  8.9000e+00	1.0	obs
Temp_20_7	  7.4000e+00	1.0	obs
Temp_20_8	  6.1000e+00	1.0	obs
Temp_20_9	  5.3000e+00	1.0	obs
Temp_20_10	  5.1000e+00	1.0	obs
Temp_20_11	  5.1000e+00	1.0	obs
Temp_21_1	  1.6300e+01	1.0	obs
Temp_21_2	  1.6200e+01	1.0	obs
Temp_21_3	  1.6200e+01	1.0	obs
Temp_21_4	  1.5800e+01	1.0	obs
Temp_21_5	  1.1600e+01	1.0	obs
Temp_21_6	  7.8000e+00	1.0	obs
Temp_21_7	  7.4000e+00	1.0	obs
Temp_21_8	  6.7000e+00	1.0	obs
Temp_21_9	  5.2000e+00	1.0	obs
Temp_21_10	  5.2000e+00	1.0	obs
Temp_21_11	  5.2000e+00	1.0	obs
Temp_22_1	  1.3300e+01	1.0	obs
Temp_22_2	  1.3300e+01	1.0	obs
Temp_22_3	  1.3300e+01	1.0	obs
Temp_22_4	  1.3300e+01	1.0	obs
Temp_22_5	  1.3300e+01	1.0	obs
Temp_22_6	  1.3200e+01	1.0	obs
Temp_22_7	  1.1300e+01	1.0	obs
Temp_22_8	  7.0000e+00	1.0	obs
Temp_22_9	  5.4000e+00	1.0	obs
Temp_22_10	  5.4000e+00	1.0	obs
Temp_22_11	  5.4000e+00	1.0	obs
Temp_23_1	  6.4000e+00	1.0	obs
Temp_23_2	  5.6000e+00	1.0	obs
Temp_23_3	  5.4000e+00	1.0	obs
Temp_23_4	  5.4000e+00	1.0	obs
Temp_23_5	  5.3000e+00	1.0	obs
Temp_23_6	  5.3000e+00	1.0	obs
Temp_23_7	  5.1000e+00	1.0	obs
Temp_23_8	  5.0000e+00	1.0	obs
Temp_23_9	  5.0000e+00	1.0	obs
Temp_23_10	  5.0000e+00	1.0	obs
Temp_23_11	  5.0000e+00	1.0	obs
Temp_24_1	  6.5000e+00	1.0	obs
Temp_24_2	  6.3000e+00	1.0	obs
Temp_24_3	  6.3000e+00	1.0	obs
Temp_24_4	  6.3000e+00	1.0	obs
Temp_24_5	  6.2000e+00	1.0	obs
Temp_24_6	  6.2000e+00	1.0	obs
Temp_24_7	  6.2000e+00	1.0	obs
Temp_24_8	  5.8000e+00	1.0	obs
Temp_24_9	  4.9000e+00	1.0	obs
Temp_24_10	  4.8000e+00	1.0	obs
Temp_24_11	  4.8000e+00	1.0	obs
Temp_25_1	  1.2300e+01	1.0	obs
Temp_25_2	  1.1100e+01	1.0	obs
Temp_25_3	  1.0500e+01	1.0	obs
Temp_25_4	  1.0500e+01	1.0	obs
Temp_25_5	  1.0200e+01	1.0	obs
Temp_25_6	  9.0000e+00	1.0	obs
Temp_25_7	  9.0000e+00	1.0	obs
Temp_25_8	  8.0000e+00	1.0	obs
Temp_25_9	  5.8000e+00	1.0	obs
Temp_25_10	  5.3000e+00	1.0	obs
Temp_25_11	  5.3000e+00	1.0	obs
Temp_26_1	  1.6900e+01	1.0	obs
Temp_26_2	  1.5600e+01	1.0	obs
Temp_26_3	  1.4700e+01	1.0	obs
Temp_26_4	  1.2800e+01	1.0	obs
Temp_26_5	  1.1600e+01	1.0	obs
Temp_26_6	  9.4000e+00	1.0	obs
Temp_26_7	  8.6000e+00	1.0	obs
Temp_26_8	  7.4000e+00	1.0	obs
Temp_26_9	  5.9000e+00	1.0	obs
Temp_26_10	  5.6000e+00	1.0	obs
Temp_26_11	  5.6000e+00	1.0	obs
Temp_27_1	  2.0000e+01	1.0	obs
Temp_27_2	  1.8400e+01	1.0	obs
Temp_27_3	  1.7700e+01	1.0	obs
Temp_27_4	  1.3900e+01	1.0	obs
Temp_27_5	  1.9900e+01	1.0	obs
Temp_27_6	  1.0000e+01	1.0	obs
Temp_27_7	  8.7000e+00	1.0	obs
Temp_27_8	  7.5000e+00	1.0	obs
Temp_27_9	  6.0000e+00	1.0	obs
Temp_27_10	  5.7000e+00	1.0	obs
Temp_27_11	  5.7000e+00	1.0	obs
Temp_28_1	  2.3300e+01	1.0	obs
Temp_28_2	  2.3300e+01	1.0	obs
Temp_28_3	  1.9500e+01	1.0	obs
Temp_28_4	  1.4500e+01	1.0	obs
Temp_28_5	  1.2300e+01	1.0	obs
Temp_28_6	  1.1200e+01	1.0	obs
Temp_28_7	  9.7000e+00	1.0	obs
Temp_28_8	  7.9000e+00	1.0	obs
Temp_28_9	  5.9000e+00	1.0	obs
Temp_28_10	  5.6000e+00	1.0	obs
Temp_28_11	  5.5000e+00	1.0	obs
Temp_29_1	  1.7600e+01	1.0	obs
Temp_29_2	  1.7600e+01	1.0	obs
Temp_29_3	  1.7600e+01	1.0	obs
Temp_29_4	  1.7500e+01	1.0	obs
Temp_29_5	  1.3100e+01	1.0	obs
Temp_29_6	  1.0900e+01	1.0	obs
Temp_29_7	  9.5000e+00	1.0	obs
Temp_29_8	  8.0000e+00	1.0	obs
Temp_29_9	  6.0000e+00	1.0	obs
Temp_29_10	  5.8000e+00	1.0	obs
Temp_29_11	  5.8000e+00	1.0	obs
Temp_30_1	  1.0600e+01	1.0	obs
Temp_30_2	  1.0200e+01	1.0	obs
Temp_30_3	  1.0200e+01	1.0	obs
Temp_30_4	  1.0100e+01	1.0	obs
Temp_30_5	  1.0100e+01	1.0	obs
Temp_30_6	  1.0100e+01	1.0	obs
Temp_30_7	  1.0100e+01	1.0	obs
Temp_30_8	  9.6000e+00	1.0	obs
Temp_30_9	  9.8000e+00	1.0	obs
Temp_30_10	  5.9000e+00	1.0	obs
Temp_30_11	  5.9000e+00	1.0	obs
Temp_31_1	  5.8000e+00	1.0	obs
Temp_31_2	  5.8000e+00	1.0	obs
Temp_31_3	  5.8000e+00	1.0	obs
Temp_31_4	  5.8000e+00	1.0	obs
Temp_31_5	  5.8000e+00	1.0	obs
Temp_31_6	  5.7000e+00	1.0	obs
Temp_31_7	  5.7000e+00	1.0	obs
Temp_31_8	  5.7000e+00	1.0	obs
Temp_31_9	  5.7000e+00	1.0	obs
Temp_31_10	  5.6000e+00	1.0	obs
Temp_31_11	  5.6000e+00	1.0	obs
Temp_32_1	  1.2100e+01	1.0	obs
Temp_32_2	  7.9000e+00	1.0	obs
Temp_32_3	  7.4000e+00	1.0	obs
Temp_32_4	  7.3000e+00	1.0	obs
Temp_32_5	  7.1000e+00	1.0	obs
Temp_32_6	  7.0000e+00	1.0	obs
Temp_32_7	  6.8000e+00	1.0	obs
Temp_32_8	  6.6000e+00	1.0	obs
Temp_32_9	  6.0000e+00	1.0	obs
Temp_32_10	  5.8000e+00	1.0	obs
Temp_32_11	  5.8000e+00	1.0	obs
Temp_33_1	  1.5500e+01	1.0	obs
Temp_33_2	  1.5500e+01	1.0	obs
Temp_33_3	  1.3600e+01	1.0	obs
Temp_33_4	  1.0600e+01	1.0	obs
Temp_33_5	  9.7000e+00	1.0	obs
Temp_33_6	  8.8000e+00	1.0	obs
Temp_33_7	  7.5000e+00	1.0	obs
Temp_33_8	  6.8000e+00	1.0	obs
Temp_33_9	  5.7000e+00	1.0	obs
Temp_33_10	  5.7000e+00	1.0	obs
Temp_33_11	  5.7000e+00	1.0	obs
Temp_34_1	  1.9900e+01	1.0	obs
Temp_34_2	  1.9700e+01	1.0	obs
Temp_34_3	  1.5400e+01	1.0	obs
Temp_34_4	  1.0700e+01	1.0	obs
Temp_34_5	  8.9000e+00	1.0	obs
Temp_34_6	  8.1000e+00	1.0	obs
Temp_34_7	  7.4000e+00	1.0	obs
Temp_34_8	  6.7000e+00	1.0	obs
Temp_34_9	  6.1000e+00	1.0	obs
Temp_34_10	  5.9000e+00	1.0	obs
Temp_34_11	  5.9000e+00	1.0	obs
Temp_35_1	  2.0500e+01	1.0	obs
Temp_35_2	  2.0400e+01	1.0	obs
Temp_35_3	  1.9300e+01	1.0	obs
Temp_35_4	  1.5000e+01	1.0	obs
Temp_35_5	  9.9000e+00	1.0	obs
Temp_35_6	  8.3000e+00	1.0	obs
Temp_35_7	  7.2000e+00	1.0	obs
Temp_35_8	  6.6000e+00	1.0	obs
Temp_35_9	  6.1000e+00	1.0	obs
Temp_35_10	  5.8000e+00	1.0	obs
Temp_35_11	  5.8000e+00	1.0	obs
Temp_36_1	  2.2800e+01	1.0	obs
Temp_36_2	  2.2600e+01	1.0	obs
Temp_36_3	  2.0900e+01	1.0	obs
Temp_36_4	  1.4900e+01	1.0	obs
Temp_36_5	  1.0000e+01	1.0	obs
Temp_36_6	  8.1000e+00	1.0	obs
Temp_36_7	  7.5000e+00	1.0	obs
Temp_36_8	  6.8000e+00	1.0	obs
Temp_36_9	  6.0000e+00	1.0	obs
Temp_36_10	  5.9000e+00	1.0	obs
Temp_36_11	  5.9000e+00	1.0	obs
Temp_37_1	  1.6300e+01	1.0	obs
Temp_37_2	  1.6200e+01	1.0	obs
Temp_37_3	  1.6100e+01	1.0	obs
Temp_37_4	  1.5900e+01	1.0	obs
Temp_37_5	  1.5400e+01	1.0	obs
Temp_37_6	  1.0900e+01	1.0	obs
Temp_37_7	  8.4000e+00	1.0	obs
Temp_37_8	  7.0000e+00	1.0	obs
Temp_37_9	  6.0000e+00	1.0	obs
Temp_37_10	  5.9000e+00	1.0	obs
Temp_37_11	  5.9000e+00	1.0	obs
Temp_38_1	  1.3900e+01	1.0	obs
Temp_38_2	  1.3400e+01	1.0	obs
Temp_38_3	  1.3400e+01	1.0	obs
Temp_38_4	  1.3400e+01	1.0	obs
Temp_38_5	  1.3300e+01	1.0	obs
Temp_38_6	  1.2500e+01	1.0	obs
Temp_38_7	  1.1600e+01	1.0	obs
Temp_38_8	  8.1000e+00	1.0	obs
Temp_38_9	  6.0000e+00	1.0	obs
Temp_38_10	  5.9000e+00	1.0	obs
Temp_38_11	  5.9000e+00	1.0	obs
Temp_39_1	  1.0600e+01	1.0	obs
Temp_39_2	  1.0100e+01	1.0	obs
Temp_39_3	  1.0100e+01	1.0	obs
Temp_39_4	  1.0100e+01	1.0	obs
Temp_39_5	  1.0100e+01	1.0	obs
Temp_39_6	  1.0100e+01	1.0	obs
Temp_39_7	  1.0100e+01	1.0	obs
Temp_39_8	  9.6000e+00	1.0	obs
Temp_39_9	  6.7000e+00	1.0	obs
Temp_39_10	  5.9000e+00	1.0	obs
Temp_39_11	  5.9000e+00	1.0	obs
Temp_40_1	  6.0000e+00	1.0	obs
Temp_40_2	  5.9000e+00	1.0	obs
Temp_40_3	  5.9000e+00	1.0	obs
Temp_40_4	  5.9000e+00	1.0	obs
Temp_40_5	  5.9000e+00	1.0	obs
Temp_40_6	  5.9000e+00	1.0	obs
Temp_40_7	  5.9000e+00	1.0	obs
Temp_40_8	  5.8000e+00	1.0	obs
Temp_40_9	  5.8000e+00	1.0	obs
Temp_40_10	  5.7000e+00	1.0	obs
Temp_40_11	  5.7000e+00	1.0	obs
Temp_41_1	  4.5000e+00	1.0	obs
Temp_41_2	  4.5000e+00	1.0	obs
Temp_41_3	  4.5000e+00	1.0	obs
Temp_41_4	  4.5000e+00	1.0	obs
Temp_41_5	  4.5000e+00	1.0	obs
Temp_41_6	  4.5000e+00	1.0	obs
Temp_41_7	  4.5000e+00	1.0	obs
Temp_41_8	  4.5000e+00	1.0	obs
Temp_41_9	  4.5000e+00	1.0	obs
Temp_41_10	  4.5000e+00	1.0	obs
Temp_41_11	  4.5000e+00	1.0	obs
Temp_42_1	  5.6000e+00	1.0	obs
Temp_42_2	  5.3000e+00	1.0	obs
Temp_42_3	  5.2000e+00	1.0	obs
Temp_42_4	  5.2000e+00	1.0	obs
Temp_42_5	  5.4000e+00	1.0	obs
Temp_42_6	  5.4000e+00	1.0	obs
Temp_42_7	  5.2000e+00	1.0	obs
Temp_42_8	  4.9000e+00	1.0	obs
Temp_42_9	  4.8000e+00	1.0	obs
Temp_42_10	  4.7000e+00	1.0	obs
Temp_42_11	  4.7000e+00	1.0	obs
Temp_43_1	  6.9000e+00	1.0	obs
Temp_43_2	  6.3000e+00	1.0	obs
Temp_43_3	  6.0000e+00	1.0	obs
Temp_43_4	  6.0000e+00	1.0	obs
Temp_43_5	  5.9000e+00	1.0	obs
Temp_43_6	  5.9000e+00	1.0	obs
Temp_43_7	  5.6000e+00	1.0	obs
Temp_43_8	  5.4000e+00	1.0	obs
Temp_43_9	  5.0000e+00	1.0	obs
Temp_43_10	  4.8000e+00	1.0	obs
Temp_43_11	  4.8000e+00	1.0	obs
Temp_44_1	  1.6600e+01	1.0	obs
Temp_44_2	  1.3700e+01	1.0	obs
Temp_44_3	  1.1400e+01	1.0	obs
Temp_44_4	  9.2000e+00	1.0	obs
Temp_44_5	  7.4000e+00	1.0	obs
Temp_44_6	  6.7000e+00	1.0	obs
Temp_44_7	  6.2000e+00	1.0	obs
Temp_44_8	  5.7000e+00	1.0	obs
Temp_44_9	  4.8000e+00	1.0	obs
Temp_44_10	  4.7000e+00	1.0	obs
Temp_44_11	  4.7000e+00	1.0	obs
Temp_45_1	  1.7600e+01	1.0	obs
Temp_45_2	  1.6800e+01	1.0	obs
Temp_45_3	  1.2500e+01	1.0	obs
Temp_45_4	  1.0400e+01	1.0	obs
Temp_45_5	  7.9000e+00	1.0	obs
Temp_45_6	  6.5000e+00	1.0	obs
Temp_45_7	  6.0000e+00	1.0	obs
Temp_45_8	  5.7000e+00	1.0	obs
Temp_45_9	  5.0000e+00	1.0	obs
Temp_45_11	  4.9000e+00	1.0	obs
Temp_46_1	  2.2200e+01	1.0	obs
Temp_46_2	  1.9600e+01	1.0	obs
Temp_46_3	  1.7700e+01	1.0	obs
Temp_46_4	  1.4200e+01	1.0	obs
Temp_46_5	  1.0300e+01	1.0	obs
Temp_46_6	  9.1000e+00	1.0	obs
Temp_46_7	  7.2000e+00	1.0	obs
Temp_46_8	  5.7000e+00	1.0	obs
Temp_46_9	  4.9000e+00	1.0	obs
Temp_46_10	  4.8000e+00	1.0	obs
Temp_46_11	  8.8000e+00	1.0	obs
Temp_47_1	  2.0800e+01	1.0	obs
Temp_47_2	  2.0800e+01	1.0	obs
Temp_47_3	  2.0300e+01	1.0	obs
Temp_47_4	  1.7800e+01	1.0	obs
Temp_47_5	  1.2800e+01	1.0	obs
Temp_47_6	  7.9000e+00	1.0	obs
Temp_47_7	  7.2000e+00	1.0	obs
Temp_47_8	  6.0000e+00	1.0	obs
Temp_47_9	  5.0000e+00	1.0	obs
Temp_47_10	  5.0000e+00	1.0	obs
Temp_47_11	  5.0000e+00	1.0	obs
Temp_48_1	  2.1000e+01	1.0	obs
Temp_48_2	  2.1500e+01	1.0	obs
Temp_48_3	  1.9700e+01	1.0	obs
Temp_48_4	  1.7700e+01	1.0	obs
Temp_48_5	  1.3200e+01	1.0	obs
Temp_48_6	  8.7000e+00	1.0	obs
Temp_48_7	  7.4000e+00	1.0	obs
Temp_48_8	  6.1000e+00	1.0	obs
Temp_48_9	  5.3000e+00	1.0	obs
Temp_48_11	  5.2000e+00	1.0	obs
Temp_49_1	  1.5500e+01	1.0	obs
Temp_49_2	  1.5300e+01	1.0	obs
Temp_49_3	  1.5200e+01	1.0	obs
Temp_49_4	  1.5100e+01	1.0	obs
Temp_49_5	  1.4900e+01	1.0	obs
Temp_49_6	  1.2200e+01	1.0	obs
Temp_49_7	  8.2000e+00	1.0	obs
Temp_49_8	  6.1000e+00	1.0	obs
Temp_49_9	  5.0000e+00	1.0	obs
Temp_49_10	  4.7000e+00	1.0	obs
Temp_49_11	  4.7000e+00	1.0	obs
Temp_50_1	  1.2000e+01	1.0	obs
Temp_50_2	  1.2000e+01	1.0	obs
Temp_50_3	  1.2000e+01	1.0	obs
Temp_50_4	  1.1900e+01	1.0	obs
Temp_50_5	  1.1800e+01	1.0	obs
Temp_50_6	  1.1600e+01	1.0	obs
Temp_50_7	  9.5000e+00	1.0	obs
Temp_50_8	  6.3000e+00	1.0	obs
Temp_50_9	  5.2000e+00	1.0	obs
Temp_50_10	  5.0000e+00	1.0	obs
Temp_50_11	  5.0000e+00	1.0	obs
Temp_51_1	  6.8000e+00	1.0	obs
Temp_51_2	  6.8000e+00	1.0	obs
Temp_51_3	  6.8000e+00	1.0	obs
Temp_51_4	  6.8000e+00	1.0	obs
Temp_51_5	  6.8000e+00	1.0	obs
Temp_51_6	  6.8000e+00	1.0	obs
Temp_51_7	  6.8000e+00	1.0	obs
Temp_51_8	  6.8000e+00	1.0	obs
Temp_51_9	  5.8000e+00	1.0	obs
Temp_51_10	  5.2000e+00	1.0	obs
Temp_51_11	  5.2000e+00	1.0	obs
Temp_52_1	  5.5000e+00	1.0	obs
Temp_52_2	  5.5000e+00	1.0	obs
Temp_52_3	  5.5000e+00	1.0	obs
Temp_52_4	  5.5000e+00	1.0	obs
Temp_52_5	  5.5000e+00	1.0	obs
Temp_52_6	  5.5000e+00	1.0	obs
Temp_52_7	  5.5000e+00	1.0	obs
Temp_52_8	  5.5000e+00	1.0	obs
Temp_52_9	  5.5000e+00	1.0	obs
Temp_52_11	  5.5000e+00	1.0	obs
Temp_53_1	  5.4000e+00	1.0	obs
Temp_53_2	  4.9000e+00	1.0	obs
Temp_53_3	  4.8000e+00	1.0	obs
Temp_53_4	  4.8000e+00	1.0	obs
Temp_53_5	  4.8000e+00	1.0	obs
Temp_53_6	  4.8000e+00	1.0	obs
Temp_53_7	  4.8000e+00	1.0	obs
Temp_53_8	  4.8000e+00	1.0	obs
Temp_53_9	  4.8000e+00	1.0	obs
Temp_53_10	  4.8000e+00	1.0	obs
Temp_53_11	  4.8000e+00	1.0	obs
Temp_54_1	  7.0000e+00	1.0	obs
Temp_54_2	  5.7000e+00	1.0	obs
Temp_54_3	  5.7000e+00	1.0	obs
Temp_54_4	  5.7000e+00	1.0	obs
Temp_54_5	  5.7000e+00	1.0	obs
Temp_54_6	  5.7000e+00	1.0	obs
Temp_54_7	  5.6000e+00	1.0	obs
Temp_54_8	  5.6000e+00	1.0	obs
Temp_54_9	  5.2000e+00	1.0	obs
Temp_54_11	  5.1000e+00	1.0	obs
Temp_55_1	  7.2000e+00	1.0	obs
Temp_55_2	  7.1000e+00	1.0	obs
Temp_55_3	  7.1000e+00	1.0	obs
Temp_55_4	  7.1000e+00	1.0	obs
Temp_55_5	  6.8000e+00	1.0	obs
Temp_55_6	  6.6000e+00	1.0	obs
Temp_55_7	  6.4000e+00	1.0	obs
Temp_55_8	  6.2000e+00	1.0	obs
Temp_55_9	  5.5000e+00	1.0	obs
Temp_55_11	  5.1000e+00	1.0	obs
Temp_56_1	  2.0800e+01	1.0	obs
Temp_56_2	  1.7100e+01	1.0	obs
Temp_56_3	  1.0400e+01	1.0	obs
Temp_56_4	  7.5000e+00	1.0	obs
Temp_56_5	  6.6000e+00	1.0	obs
Temp_56_6	  6.4000e+00	1.0	obs
Temp_56_7	  6.3000e+00	1.0	obs
Temp_56_8	  5.8000e+00	1.0	obs
Temp_56_9	  5.2000e+00	1.0	obs
Temp_56_10	  4.9000e+00	1.0	obs
Temp_56_11	  4.9000e+00	1.0	obs
Temp_57_1	  2.1300e+01	1.0	obs
Temp_57_2	  1.8700e+01	1.0	obs
Temp_57_3	  1.5800e+01	1.0	obs
Temp_57_4	  1.1900e+01	1.0	obs
Temp_57_5	  9.1000e+00	1.0	obs
Temp_57_6	  8.6000e+00	1.0	obs
Temp_57_7	  7.9000e+00	1.0	obs
Temp_57_8	  6.4000e+00	1.0	obs
Temp_57_9	  5.5000e+00	1.0	obs
Temp_57_11	  5.3000e+00	1.0	obs
Temp_58_1	  1.7600e+01	1.0	obs
Temp_58_2	  1.6900e+01	1.0	obs
Temp_58_3	  1.6700e+01	1.0	obs
Temp_58_4	  1.3800e+01	1.0	obs
Temp_58_5	  1.0900e+01	1.0	obs
Temp_58_6	  7.9000e+00	1.0	obs
Temp_58_7	  6.5000e+00	1.0	obs
Temp_58_8	  6.0000e+00	1.0	obs
Temp_58_9	  5.3000e+00	1.0	obs
Temp_58_10	  5.0000e+00	1.0	obs
Temp_58_11	  5.0000e+00	1.0	obs
Temp_59_1	  2.2600e+01	1.0	obs
Temp_59_2	  2.0500e+01	1.0	obs
Temp_59_3	  1.9200e+01	1.0	obs
Temp_59_4	  1.5000e+01	1.0	obs
Temp_59_5	  1.1100e+01	1.0	obs
Temp_59_6	  8.8000e+00	1.0	obs
Temp_59_7	  7.4000e+00	1.0	obs
Temp_59_8	  6.4000e+00	1.0	obs
Temp_59_9	  5.5000e+00	1.0	obs
Temp_59_10	  5.3000e+00	1.0	obs
Temp_59_11	  5.3000e+00	1.0	obs
Temp_60_1	  2.0700e+01	1.0	obs
Temp_60_2	  1.3200e+01	1.0	obs
Temp_60_3	  1.8800e+01	1.0	obs
Temp_60_4	  1.5000e+01	1.0	obs
Temp_60_5	  1.0900e+01	1.0	obs
Temp_60_6	  9.2000e+00	1.0	obs
Temp_60_7	  8.0000e+00	1.0	obs
Temp_60_8	  6.4000e+00	1.0	obs
Temp_60_9	  5.4000e+00	1.0	obs
Temp_60_10	  5.1000e+00	1.0	obs
Temp_60_11	  5.1000e+00	1.0	obs
Temp_61_1	  1.4900e+01	1.0	obs
Temp_61_2	  1.5000e+01	1.0	obs
Temp_61_3	  1.4600e+01	1.0	obs
Temp_61_4	  1.4300e+01	1.0	obs
Temp_61_5	  1.3200e+01	1.0	obs
Temp_61_6	  1.0400e+01	1.0	obs
Temp_61_7	  7.9000e+00	1.0	obs
Temp_61_8	  6.6000e+00	1.0	obs
Temp_61_9	  5.8000e+00	1.0	obs
Temp_61_10	  5.4000e+00	1.0	obs
Temp_61_11	  5.3000e+00	1.0	obs
Temp_62_1	  1.1100e+01	1.0	obs
Temp_62_2	  1.1100e+01	1.0	obs
Temp_62_3	  1.1100e+01	1.0	obs
Temp_62_4	  1.1100e+01	1.0	obs
Temp_62_5	  1.1000e+01	1.0	obs
Temp_62_6	  1.1000e+01	1.0	obs
Temp_62_7	  1.1000e+01	1.0	obs
Temp_62_8	  1.0900e+01	1.0	obs
Temp_62_9	  5.8000e+00	1.0	obs
Temp_62_10	  5.4000e+00	1.0	obs
Temp_62_11	  5.4000e+00	1.0	obs
Temp_63_1	  9.3000e+00	1.0	obs
Temp_63_2	  9.3000e+00	1.0	obs
Temp_63_3	  9.3000e+00	1.0	obs
Temp_63_4	  9.3000e+00	1.0	obs
Temp_63_5	  9.3000e+00	1.0	obs
Temp_63_6	  9.3000e+00	1.0	obs
Temp_63_7	  9.1000e+00	1.0	obs
Temp_63_8	  7.9000e+00	1.0	obs
Temp_63_9	  5.8000e+00	1.0	obs
Temp_63_10	  5.5000e+00	1.0	obs
Temp_63_11	  5.5000e+00	1.0	obs
Temp_64_1	  6.6000e+00	1.0	obs
Temp_64_2	  6.6000e+00	1.0	obs
Temp_64_3	  6.6000e+00	1.0	obs
Temp_64_4	  6.6000e+00	1.0	obs
Temp_64_5	  6.6000e+00	1.0	obs
Temp_64_6	  6.6000e+00	1.0	obs
Temp_64_7	  6.6000e+00	1.0	obs
Temp_64_8	  6.6000e+00	1.0	obs
Temp_64_9	  6.2000e+00	1.0	obs
Temp_64_11	  5.6000e+00	1.0	obs
Temp_65_1	  5.6000e+00	1.0	obs
Temp_65_2	  5.6000e+00	1.0	obs
Temp_65_3	  5.6000e+00	1.0	obs
Temp_65_4	  5.6000e+00	1.0	obs
Temp_65_5	  5.6000e+00	1.0	obs
Temp_65_6	  5.6000e+00	1.0	obs
Temp_65_7	  5.6000e+00	1.0	obs
Temp_65_8	  5.6000e+00	1.0	obs
Temp_65_9	  5.6000e+00	1.0	obs
Temp_65_10	  5.4000e+00	1.0	obs
Temp_65_11	  5.4000e+00	1.0	obs
Temp_66_1	  7.8000e+00	1.0	obs
Temp_66_2	  6.2000e+00	1.0	obs
Temp_66_3	  6.1000e+00	1.0	obs
Temp_66_4	  6.1000e+00	1.0	obs
Temp_66_5	  6.1000e+00	1.0	obs
Temp_66_6	  6.0000e+00	1.0	obs
Temp_66_7	  6.0000e+00	1.0	obs
Temp_66_8	  6.0000e+00	1.0	obs
Temp_66_9	  5.7000e+00	1.0	obs
Temp_66_10	  5.7000e+00	1.0	obs
Temp_66_11	  5.7000e+00	1.0	obs
Temp_67_1	  7.2000e+00	1.0	obs
Temp_67_2	  7.2000e+00	1.0	obs
Temp_67_3	  7.2000e+00	1.0	obs
Temp_67_4	  7.2000e+00	1.0	obs
Temp_67_5	  7.0000e+00	1.0	obs
Temp_67_6	  6.8000e+00	1.0	obs
Temp_67_7	  6.9000e+00	1.0	obs
Temp_67_8	  6.7000e+00	1.0	obs
Temp_67_9	  6.0000e+00	1.0	obs
Temp_67_10	  5.7000e+00	1.0	obs
Temp_67_11	  5.7000e+00	1.0	obs
Temp_68_1	  1.7000e+01	1.0	obs
Temp_68_2	  1.4900e+01	1.0	obs
Temp_68_3	  1.2700e+01	1.0	obs
Temp_68_4	  1.1000e+01	1.0	obs
Temp_68_5	  9.0000e+00	1.0	obs
Temp_68_6	  7.5000e+00	1.0	obs
Temp_68_7	  7.4000e+00	1.0	obs
Temp_68_8	  6.7000e+00	1.0	obs
Temp_68_9	  6.0000e+00	1.0	obs
Temp_68_10	  5.7000e+00	1.0	obs
Temp_68_11	  5.7000e+00	1.0	obs
Temp_69_1	  2.2900e+01	1.0	obs
Temp_69_2	  1.9300e+01	1.0	obs
Temp_69_3	  1.5000e+01	1.0	obs
Temp_69_4	  1.2000e+01	1.0	obs
Temp_69_5	  1.0000e+01	1.0	obs
Temp_69_6	  8.3000e+00	1.0	obs
Temp_69_7	  7.6000e+00	1.0	obs
Temp_69_8	  6.9000e+00	1.0	obs
Temp_69_9	  6.2000e+00	1.0	obs
Temp_69_10	  5.9000e+00	1.0	obs
Temp_69_11	  5.9000e+00	1.0	obs
Temp_70_1	  2.0700e+01	1.0	obs
Temp_70_2	  1.9900e+01	1.0	obs
Temp_70_3	  1.9400e+01	1.0	obs
Temp_70_4	  1.5700e+01	1.0	obs
Temp_70_5	  1.1000e+01	1.0	obs
Temp_70_6	  8.7000e+00	1.0	obs
Temp_70_7	  7.6000e+00	1.0	obs
Temp_70_8	  7.1000e+00	1.0	obs
Temp_70_9	  6.2000e+00	1.0	obs
Temp_70_10	  6.0000e+00	1.0	obs
Temp_70_11	  6.0000e+00	1.0	obs
Temp_71_1	  2.1700e+01	1.0	obs
Temp_71_2	  2.1800e+01	1.0	obs
Temp_71_3	  1.9500e+01	1.0	obs
Temp_71_4	  1.7300e+01	1.0	obs
Temp_71_5	  1.5300e+01	1.0	obs
Temp_71_6	  1.2900e+01	1.0	obs
Temp_71_7	  1.1000e+01	1.0	obs
Temp_71_8	  8.2000e+00	1.0	obs
Temp_71_9	  6.1000e+00	1.0	obs
Temp_71_10	  5.9000e+00	1.0	obs
Temp_71_11	  5.8000e+00	1.0	obs
Temp_72_1	  1.5100e+01	1.0	obs
Temp_72_2	  1.5100e+01	1.0	obs
Temp_72_3	  1.5100e+01	1.0	obs
Temp_72_4	  1.5000e+01	1.0	obs
Temp_72_5	  1.0900e+01	1.0	obs
Temp_72_6	  9.3000e+00	1.0	obs
Temp_72_7	  8.2000e+00	1.0	obs
Temp_72_8	  7.7000e+00	1.0	obs
Temp_72_9	  6.3000e+00	1.0	obs
Temp_72_10	  6.1000e+00	1.0	obs
Temp_72_11	  6.1000e+00	1.0	obs
Temp_73_1	  1.4800e+01	1.0	obs
Temp_73_2	  1.4700e+01	1.0	obs
Temp_73_3	  1.4700e+01	1.0	obs
Temp_73_4	  1.4400e+01	1.0	obs
Temp_73_5	  1.3000e+01	1.0	obs
Temp_73_6	  1.1400e+01	1.0	obs
Temp_73_7	  1.0300e+01	1.0	obs
Temp_73_8	  7.7000e+00	1.0	obs
Temp_73_9	  6.3000e+00	1.0	obs
Temp_73_10	  5.9000e+00	1.0	obs
Temp_73_11	  5.9000e+00	1.0	obs
Temp_74_1	  9.0000e+00	1.0	obs
Temp_74_2	  9.0000e+00	1.0	obs
Temp_74_3	  9.0000e+00	1.0	obs
Temp_74_4	  9.0000e+00	1.0	obs
Temp_74_5	  9.0000e+00	1.0	obs
Temp_74_6	  9.0000e+00	1.0	obs
Temp_74_7	  9.0000e+00	1.0	obs
Temp_74_8	  8.8000e+00	1.0	obs
Temp_74_9	  6.5000e+00	1.0	obs
Temp_74_10	  6.3000e+00	1.0	obs
Temp_74_11	  6.3000e+00	1.0	obs
Temp_75_1	  6.6000e+00	1.0	obs
Temp_75_2	  6.6000e+00	1.0	obs
Temp_75_3	  6.6000e+00	1.0	obs
Temp_75_4	  6.6000e+00	1.0	obs
Temp_75_5	  6.6000e+00	1.0	obs
Temp_75_6	  6.6000e+00	1.0	obs
Temp_75_7	  6.5000e+00	1.0	obs
Temp_75_8	  6.5000e+00	1.0	obs
Temp_75_9	  6.5000e+00	1.0	obs
Temp_75_11	  6.5000e+00	1.0	obs
Temp_76_1	  5.4000e+00	1.0	obs
Temp_76_2	  5.4000e+00	1.0	obs
Temp_76_3	  5.4000e+00	1.0	obs
Temp_76_4	  5.4000e+00	1.0	obs
Temp_76_5	  5.4000e+00	1.0	obs
Temp_76_6	  5.4000e+00	1.0	obs
Temp_76_7	  5.4000e+00	1.0	obs
Temp_76_8	  5.4000e+00	1.0	obs
Temp_76_9	  5.4000e+00	1.0	obs
Temp_76_10	  5.1000e+00	1.0	obs
Temp_76_11	  5.1000e+00	1.0	obs
Temp_77_1	  5.4000e+00	1.0	obs
Temp_77_2	  5.4000e+00	1.0	obs
Temp_77_3	  5.4000e+00	1.0	obs
Temp_77_4	  5.4000e+00	1.0	obs
Temp_77_5	  5.4000e+00	1.0	obs
Temp_77_6	  5.4000e+00	1.0	obs
Temp_77_7	  5.4000e+00	1.0	obs
Temp_77_8	  5.4000e+00	1.0	obs
Temp_77_9	  5.3000e+00	1.0	obs
Temp_77_10	  5.3000e+00	1.0	obs
Temp_78_1	  6.2000e+00	1.0	obs
Temp_78_2	  6.1000e+00	1.0	obs
Temp_78_3	  6.0000e+00	1.0	obs
Temp_78_4	  5.9000e+00	1.0	obs
Temp_78_5	  5.9000e+00	1.0	obs
Temp_78_6	  5.8000e+00	1.0	obs
Temp_78_7	  5.8000e+00	1.0	obs
Temp_78_8	  5.8000e+00	1.0	obs
Temp_78_9	  5.6000e+00	1.0	obs
Temp_79_1	  7.8000e+00	1.0	obs
Temp_79_2	  7.5000e+00	1.0	obs
Temp_79_3	  6.9000e+00	1.0	obs
Temp_79_4	  6.8000e+00	1.0	obs
Temp_79_5	  6.6000e+00	1.0	obs
Temp_79_6	  6.5000e+00	1.0	obs
Temp_79_7	  6.3000e+00	1.0	obs
Temp_79_8	  6.2000e+00	1.0	obs
Temp_79_9	  5.7000e+00	1.0	obs
Temp_79_10	  5.5000e+00	1.0	obs
Temp_80_1	  1.3200e+01	1.0	obs
Temp_80_2	  1.1500e+01	1.0	obs
Temp_80_3	  1.0600e+01	1.0	obs
Temp_80_4	  9.4000e+00	1.0	obs
Temp_80_5	  8.4000e+00	1.0	obs
Temp_80_6	  8.3000e+00	1.0	obs
Temp_80_7	  7.3000e+00	1.0	obs
Temp_80_8	  6.5000e+00	1.0	obs
Temp_80_9	  5.8000e+00	1.0	obs
Temp_80_10	  5.6000e+00	1.0	obs
Temp_80_11	  5.6000e+00	1.0	obs
Temp_81_1	  2.2900e+01	1.0	obs
Temp_81_2	  1.9200e+01	1.0	obs
Temp_81_3	  1.5700e+01	1.0	obs
Temp_81_4	  1.0600e+01	1.0	obs
Temp_81_5	  8.5000e+00	1.0	obs
Temp_81_6	  7.5000e+00	1.0	obs
Temp_81_7	  7.1000e+00	1.0	obs
Temp_81_8	  6.5000e+00	1.0	obs
Temp_81_9	  5.8000e+00	1.0	obs
Temp_81_10	  5.6000e+00	1.0	obs
Temp_81_11	  5.6000e+00	1.0	obs
Temp_82_1	  2.2400e+01	1.0	obs
Temp_82_2	  2.1900e+01	1.0	obs
Temp_82_3	  1.7900e+01	1.0	obs
Temp_82_4	  1.4700e+01	1.0	obs
Temp_82_5	  1.0500e+01	1.0	obs
Temp_82_6	  8.5000e+00	1.0	obs
Temp_82_7	  7.3000e+00	1.0	obs
Temp_82_8	  6.5000e+00	1.0	obs
Temp_82_9	  5.9000e+00	1.0	obs
Temp_82_10	  5.7000e+00	1.0	obs
Temp_82_11	  5.6000e+00	1.0	obs
Temp_83_1	  2.0300e+01	1.0	obs
Temp_83_2	  1.9500e+01	1.0	obs
Temp_83_3	  1.8900e+01	1.0	obs
Temp_83_4	  1.7000e+01	1.0	obs
Temp_83_5	  1.1700e+01	1.0	obs
Temp_83_6	  8.8000e+00	1.0	obs
Temp_83_7	  7.4000e+00	1.0	obs
Temp_83_8	  6.6000e+00	1.0	obs
Temp_83_9	  5.8000e+00	1.0	obs
Temp_83_11	  5.7000e+00	1.0	obs
Temp_84_1	  1.8000e+01	1.0	obs
Temp_84_2	  1.7800e+01	1.0	obs
Temp_84_3	  1.7400e+01	1.0	obs
Temp_84_4	  1.6800e+01	1.0	obs
Temp_84_5	  1.4900e+01	1.0	obs
Temp_84_6	  1.0600e+01	1.0	obs
Temp_84_7	  8.6000e+00	1.0	obs
Temp_84_8	  7.2000e+00	1.0	obs
Temp_84_9	  5.8000e+00	1.0	obs
Temp_84_10	  5.7000e+00	1.0	obs
Temp_84_11	  5.7000e+00	1.0	obs
Temp_85_1	  1.3100e+01	1.0	obs
Temp_85_2	  1.3200e+01	1.0	obs
Temp_85_3	  1.3200e+01	1.0	obs
Temp_85_4	  1.3100e+01	1.0	obs
Temp_85_5	  1.2400e+01	1.0	obs
Temp_85_6	  8.5000e+00	1.0	obs
Temp_85_7	  7.3000e+00	1.0	obs
Temp_85_8	  6.8000e+00	1.0	obs
Temp_85_9	  5.9000e+00	1.0	obs
Temp_85_10	  5.7000e+00	1.0	obs
Temp_85_11	  5.7000e+00	1.0	obs
Temp_86_1	  9.6000e+00	1.0	obs
Temp_86_2	  9.7000e+00	1.0	obs
Temp_86_3	  9.6000e+00	1.0	obs
Temp_86_4	  9.6000e+00	1.0	obs
Temp_86_5	  9.6000e+00	1.0	obs
Temp_86_6	  9.6000e+00	1.0	obs